
---------- Begin Simulation Statistics ----------
simSeconds                                   0.144641                       # Number of seconds simulated (Second)
simTicks                                 144640730250                       # Number of ticks simulated (Tick)
finalTick                                144640730250                       # Number of ticks from beginning of simulation (restored from checkpoints and never reset) (Tick)
simFreq                                  1000000000000                       # The number of ticks per simulated second ((Tick/Second))
hostSeconds                                     93.78                       # Real time elapsed on the host (Second)
hostTickRate                               1542360659                       # The number of ticks simulated per host second (ticks/s) ((Tick/Second))
hostMemory                                     722472                       # Number of bytes of host memory used (Byte)
simInsts                                    101718929                       # Number of instructions simulated (Count)
simOps                                      196184210                       # Number of ops (including micro ops) simulated (Count)
hostInstRate                                  1084668                       # Simulator instruction rate (inst/s) ((Count/Second))
hostOpRate                                    2091987                       # Simulator op (including micro ops) rate (op/s) ((Count/Second))
system.clk_domain.clock                           250                       # Clock period in ticks (Tick)
system.clk_domain.voltage_domain.voltage            1                       # Voltage in Volts (Volt)
system.cpu.numCycles                        578562921                       # Number of cpu cycles simulated (Cycle)
system.cpu.cpi                               5.687847                       # CPI: cycles per instruction (core level) ((Cycle/Count))
system.cpu.ipc                               0.175813                       # IPC: instructions per cycle (core level) ((Count/Cycle))
system.cpu.numWorkItemsStarted                      0                       # Number of work items this cpu started (Count)
system.cpu.numWorkItemsCompleted                    0                       # Number of work items this cpu completed (Count)
system.cpu.commitStats0.numInsts            101719141                       # Number of instructions committed (thread level) (Count)
system.cpu.commitStats0.numOps              196184586                       # Number of ops (including micro ops) committed (thread level) (Count)
system.cpu.commitStats0.numInstsNotNOP              0                       # Number of instructions committed excluding NOPs or prefetches (Count)
system.cpu.commitStats0.numOpsNotNOP                0                       # Number of Ops (including micro ops) Simulated (Count)
system.cpu.commitStats0.cpi                  5.687847                       # CPI: cycles per instruction (thread level) ((Cycle/Count))
system.cpu.commitStats0.ipc                  0.175813                       # IPC: instructions per cycle (thread level) ((Count/Cycle))
system.cpu.commitStats0.numMemRefs                  0                       # Number of memory references committed (Count)
system.cpu.commitStats0.numFpInsts            1152274                       # Number of float instructions (Count)
system.cpu.commitStats0.numIntInsts         195118021                       # Number of integer instructions (Count)
system.cpu.commitStats0.numLoadInsts         39690962                       # Number of load instructions (Count)
system.cpu.commitStats0.numStoreInsts        16065442                       # Number of store instructions (Count)
system.cpu.commitStats0.numVecInsts                 0                       # Number of vector instructions (Count)
system.cpu.commitStats0.committedInstType::No_OpClass       160514      0.08%      0.08% # Class of committed instruction. (Count)
system.cpu.commitStats0.committedInstType::IntAlu    138638259     70.67%     70.75% # Class of committed instruction. (Count)
system.cpu.commitStats0.committedInstType::IntMult       617164      0.31%     71.06% # Class of committed instruction. (Count)
system.cpu.commitStats0.committedInstType::IntDiv        36348      0.02%     71.08% # Class of committed instruction. (Count)
system.cpu.commitStats0.committedInstType::FloatAdd          891      0.00%     71.08% # Class of committed instruction. (Count)
system.cpu.commitStats0.committedInstType::FloatCmp            0      0.00%     71.08% # Class of committed instruction. (Count)
system.cpu.commitStats0.committedInstType::FloatCvt         1408      0.00%     71.08% # Class of committed instruction. (Count)
system.cpu.commitStats0.committedInstType::FloatMult            0      0.00%     71.08% # Class of committed instruction. (Count)
system.cpu.commitStats0.committedInstType::FloatMultAcc            0      0.00%     71.08% # Class of committed instruction. (Count)
system.cpu.commitStats0.committedInstType::FloatDiv            0      0.00%     71.08% # Class of committed instruction. (Count)
system.cpu.commitStats0.committedInstType::FloatMisc            0      0.00%     71.08% # Class of committed instruction. (Count)
system.cpu.commitStats0.committedInstType::FloatSqrt            0      0.00%     71.08% # Class of committed instruction. (Count)
system.cpu.commitStats0.committedInstType::SimdAdd         5736      0.00%     71.09% # Class of committed instruction. (Count)
system.cpu.commitStats0.committedInstType::SimdAddAcc            0      0.00%     71.09% # Class of committed instruction. (Count)
system.cpu.commitStats0.committedInstType::SimdAlu       634848      0.32%     71.41% # Class of committed instruction. (Count)
system.cpu.commitStats0.committedInstType::SimdCmp            6      0.00%     71.41% # Class of committed instruction. (Count)
system.cpu.commitStats0.committedInstType::SimdCvt       168884      0.09%     71.50% # Class of committed instruction. (Count)
system.cpu.commitStats0.committedInstType::SimdMisc       163390      0.08%     71.58% # Class of committed instruction. (Count)
system.cpu.commitStats0.committedInstType::SimdMult            0      0.00%     71.58% # Class of committed instruction. (Count)
system.cpu.commitStats0.committedInstType::SimdMultAcc            0      0.00%     71.58% # Class of committed instruction. (Count)
system.cpu.commitStats0.committedInstType::SimdMatMultAcc            0      0.00%     71.58% # Class of committed instruction. (Count)
system.cpu.commitStats0.committedInstType::SimdShift          730      0.00%     71.58% # Class of committed instruction. (Count)
system.cpu.commitStats0.committedInstType::SimdShiftAcc            0      0.00%     71.58% # Class of committed instruction. (Count)
system.cpu.commitStats0.committedInstType::SimdDiv            0      0.00%     71.58% # Class of committed instruction. (Count)
system.cpu.commitStats0.committedInstType::SimdSqrt            0      0.00%     71.58% # Class of committed instruction. (Count)
system.cpu.commitStats0.committedInstType::SimdFloatAdd            0      0.00%     71.58% # Class of committed instruction. (Count)
system.cpu.commitStats0.committedInstType::SimdFloatAlu            0      0.00%     71.58% # Class of committed instruction. (Count)
system.cpu.commitStats0.committedInstType::SimdFloatCmp            0      0.00%     71.58% # Class of committed instruction. (Count)
system.cpu.commitStats0.committedInstType::SimdFloatCvt            3      0.00%     71.58% # Class of committed instruction. (Count)
system.cpu.commitStats0.committedInstType::SimdFloatDiv            0      0.00%     71.58% # Class of committed instruction. (Count)
system.cpu.commitStats0.committedInstType::SimdFloatMisc            0      0.00%     71.58% # Class of committed instruction. (Count)
system.cpu.commitStats0.committedInstType::SimdFloatMult            0      0.00%     71.58% # Class of committed instruction. (Count)
system.cpu.commitStats0.committedInstType::SimdFloatMultAcc            0      0.00%     71.58% # Class of committed instruction. (Count)
system.cpu.commitStats0.committedInstType::SimdFloatMatMultAcc            0      0.00%     71.58% # Class of committed instruction. (Count)
system.cpu.commitStats0.committedInstType::SimdFloatSqrt            1      0.00%     71.58% # Class of committed instruction. (Count)
system.cpu.commitStats0.committedInstType::SimdReduceAdd            0      0.00%     71.58% # Class of committed instruction. (Count)
system.cpu.commitStats0.committedInstType::SimdReduceAlu            0      0.00%     71.58% # Class of committed instruction. (Count)
system.cpu.commitStats0.committedInstType::SimdReduceCmp            0      0.00%     71.58% # Class of committed instruction. (Count)
system.cpu.commitStats0.committedInstType::SimdFloatReduceAdd            0      0.00%     71.58% # Class of committed instruction. (Count)
system.cpu.commitStats0.committedInstType::SimdFloatReduceCmp            0      0.00%     71.58% # Class of committed instruction. (Count)
system.cpu.commitStats0.committedInstType::SimdAes            0      0.00%     71.58% # Class of committed instruction. (Count)
system.cpu.commitStats0.committedInstType::SimdAesMix            0      0.00%     71.58% # Class of committed instruction. (Count)
system.cpu.commitStats0.committedInstType::SimdSha1Hash            0      0.00%     71.58% # Class of committed instruction. (Count)
system.cpu.commitStats0.committedInstType::SimdSha1Hash2            0      0.00%     71.58% # Class of committed instruction. (Count)
system.cpu.commitStats0.committedInstType::SimdSha256Hash            0      0.00%     71.58% # Class of committed instruction. (Count)
system.cpu.commitStats0.committedInstType::SimdSha256Hash2            0      0.00%     71.58% # Class of committed instruction. (Count)
system.cpu.commitStats0.committedInstType::SimdShaSigma2            0      0.00%     71.58% # Class of committed instruction. (Count)
system.cpu.commitStats0.committedInstType::SimdShaSigma3            0      0.00%     71.58% # Class of committed instruction. (Count)
system.cpu.commitStats0.committedInstType::SimdPredAlu            0      0.00%     71.58% # Class of committed instruction. (Count)
system.cpu.commitStats0.committedInstType::Matrix            0      0.00%     71.58% # Class of committed instruction. (Count)
system.cpu.commitStats0.committedInstType::MatrixMov            0      0.00%     71.58% # Class of committed instruction. (Count)
system.cpu.commitStats0.committedInstType::MatrixOP            0      0.00%     71.58% # Class of committed instruction. (Count)
system.cpu.commitStats0.committedInstType::MemRead     39518889     20.14%     91.72% # Class of committed instruction. (Count)
system.cpu.commitStats0.committedInstType::MemWrite     16061431      8.19%     99.91% # Class of committed instruction. (Count)
system.cpu.commitStats0.committedInstType::FloatMemRead       172073      0.09%    100.00% # Class of committed instruction. (Count)
system.cpu.commitStats0.committedInstType::FloatMemWrite         4011      0.00%    100.00% # Class of committed instruction. (Count)
system.cpu.commitStats0.committedInstType::IprAccess            0      0.00%    100.00% # Class of committed instruction. (Count)
system.cpu.commitStats0.committedInstType::InstPrefetch            0      0.00%    100.00% # Class of committed instruction. (Count)
system.cpu.commitStats0.committedInstType::SimdUnitStrideLoad            0      0.00%    100.00% # Class of committed instruction. (Count)
system.cpu.commitStats0.committedInstType::SimdUnitStrideStore            0      0.00%    100.00% # Class of committed instruction. (Count)
system.cpu.commitStats0.committedInstType::SimdUnitStrideMaskLoad            0      0.00%    100.00% # Class of committed instruction. (Count)
system.cpu.commitStats0.committedInstType::SimdUnitStrideMaskStore            0      0.00%    100.00% # Class of committed instruction. (Count)
system.cpu.commitStats0.committedInstType::SimdStridedLoad            0      0.00%    100.00% # Class of committed instruction. (Count)
system.cpu.commitStats0.committedInstType::SimdStridedStore            0      0.00%    100.00% # Class of committed instruction. (Count)
system.cpu.commitStats0.committedInstType::SimdIndexedLoad            0      0.00%    100.00% # Class of committed instruction. (Count)
system.cpu.commitStats0.committedInstType::SimdIndexedStore            0      0.00%    100.00% # Class of committed instruction. (Count)
system.cpu.commitStats0.committedInstType::SimdWholeRegisterLoad            0      0.00%    100.00% # Class of committed instruction. (Count)
system.cpu.commitStats0.committedInstType::SimdWholeRegisterStore            0      0.00%    100.00% # Class of committed instruction. (Count)
system.cpu.commitStats0.committedInstType::SimdUnitStrideFaultOnlyFirstLoad            0      0.00%    100.00% # Class of committed instruction. (Count)
system.cpu.commitStats0.committedInstType::SimdUnitStrideSegmentedLoad            0      0.00%    100.00% # Class of committed instruction. (Count)
system.cpu.commitStats0.committedInstType::SimdUnitStrideSegmentedStore            0      0.00%    100.00% # Class of committed instruction. (Count)
system.cpu.commitStats0.committedInstType::SimdExt            0      0.00%    100.00% # Class of committed instruction. (Count)
system.cpu.commitStats0.committedInstType::SimdFloatExt            0      0.00%    100.00% # Class of committed instruction. (Count)
system.cpu.commitStats0.committedInstType::SimdConfig            0      0.00%    100.00% # Class of committed instruction. (Count)
system.cpu.commitStats0.committedInstType::total    196184586                       # Class of committed instruction. (Count)
system.cpu.commitStats0.committedControl::IsControl     20879337                       # Class of control type instructions committed (Count)
system.cpu.commitStats0.committedControl::IsDirectControl     17721899                       # Class of control type instructions committed (Count)
system.cpu.commitStats0.committedControl::IsIndirectControl      3157290                       # Class of control type instructions committed (Count)
system.cpu.commitStats0.committedControl::IsCondControl     11922339                       # Class of control type instructions committed (Count)
system.cpu.commitStats0.committedControl::IsUncondControl      8956850                       # Class of control type instructions committed (Count)
system.cpu.commitStats0.committedControl::IsCall      1424664                       # Class of control type instructions committed (Count)
system.cpu.commitStats0.committedControl::IsReturn      1424660                       # Class of control type instructions committed (Count)
system.cpu.dcache.demandHits::cpu.data       55046286                       # number of demand (read+write) hits (Count)
system.cpu.dcache.demandHits::total          55046286                       # number of demand (read+write) hits (Count)
system.cpu.dcache.overallHits::cpu.data      55046286                       # number of overall hits (Count)
system.cpu.dcache.overallHits::total         55046286                       # number of overall hits (Count)
system.cpu.dcache.demandMisses::cpu.data       717203                       # number of demand (read+write) misses (Count)
system.cpu.dcache.demandMisses::total          717203                       # number of demand (read+write) misses (Count)
system.cpu.dcache.overallMisses::cpu.data       717203                       # number of overall misses (Count)
system.cpu.dcache.overallMisses::total         717203                       # number of overall misses (Count)
system.cpu.dcache.demandMissLatency::cpu.data  53836816750                       # number of demand (read+write) miss ticks (Tick)
system.cpu.dcache.demandMissLatency::total  53836816750                       # number of demand (read+write) miss ticks (Tick)
system.cpu.dcache.overallMissLatency::cpu.data  53836816750                       # number of overall miss ticks (Tick)
system.cpu.dcache.overallMissLatency::total  53836816750                       # number of overall miss ticks (Tick)
system.cpu.dcache.demandAccesses::cpu.data     55763489                       # number of demand (read+write) accesses (Count)
system.cpu.dcache.demandAccesses::total      55763489                       # number of demand (read+write) accesses (Count)
system.cpu.dcache.overallAccesses::cpu.data     55763489                       # number of overall (read+write) accesses (Count)
system.cpu.dcache.overallAccesses::total     55763489                       # number of overall (read+write) accesses (Count)
system.cpu.dcache.demandMissRate::cpu.data     0.012862                       # miss rate for demand accesses (Ratio)
system.cpu.dcache.demandMissRate::total      0.012862                       # miss rate for demand accesses (Ratio)
system.cpu.dcache.overallMissRate::cpu.data     0.012862                       # miss rate for overall accesses (Ratio)
system.cpu.dcache.overallMissRate::total     0.012862                       # miss rate for overall accesses (Ratio)
system.cpu.dcache.demandAvgMissLatency::cpu.data 75064.963128                       # average overall miss latency in ticks ((Tick/Count))
system.cpu.dcache.demandAvgMissLatency::total 75064.963128                       # average overall miss latency in ticks ((Tick/Count))
system.cpu.dcache.overallAvgMissLatency::cpu.data 75064.963128                       # average overall miss latency ((Tick/Count))
system.cpu.dcache.overallAvgMissLatency::total 75064.963128                       # average overall miss latency ((Tick/Count))
system.cpu.dcache.blockedCycles::no_mshrs            0                       # number of cycles access was blocked (Cycle)
system.cpu.dcache.blockedCycles::no_targets            0                       # number of cycles access was blocked (Cycle)
system.cpu.dcache.blockedCauses::no_mshrs            0                       # number of times access was blocked (Count)
system.cpu.dcache.blockedCauses::no_targets            0                       # number of times access was blocked (Count)
system.cpu.dcache.avgBlocked::no_mshrs            nan                       # average number of cycles each access was blocked ((Cycle/Count))
system.cpu.dcache.avgBlocked::no_targets          nan                       # average number of cycles each access was blocked ((Cycle/Count))
system.cpu.dcache.writebacks::writebacks       690633                       # number of writebacks (Count)
system.cpu.dcache.writebacks::total            690633                       # number of writebacks (Count)
system.cpu.dcache.demandMshrMisses::cpu.data       717203                       # number of demand (read+write) MSHR misses (Count)
system.cpu.dcache.demandMshrMisses::total       717203                       # number of demand (read+write) MSHR misses (Count)
system.cpu.dcache.overallMshrMisses::cpu.data       717203                       # number of overall MSHR misses (Count)
system.cpu.dcache.overallMshrMisses::total       717203                       # number of overall MSHR misses (Count)
system.cpu.dcache.demandMshrMissLatency::cpu.data  53478215250                       # number of demand (read+write) MSHR miss ticks (Tick)
system.cpu.dcache.demandMshrMissLatency::total  53478215250                       # number of demand (read+write) MSHR miss ticks (Tick)
system.cpu.dcache.overallMshrMissLatency::cpu.data  53478215250                       # number of overall MSHR miss ticks (Tick)
system.cpu.dcache.overallMshrMissLatency::total  53478215250                       # number of overall MSHR miss ticks (Tick)
system.cpu.dcache.demandMshrMissRate::cpu.data     0.012862                       # mshr miss ratio for demand accesses (Ratio)
system.cpu.dcache.demandMshrMissRate::total     0.012862                       # mshr miss ratio for demand accesses (Ratio)
system.cpu.dcache.overallMshrMissRate::cpu.data     0.012862                       # mshr miss ratio for overall accesses (Ratio)
system.cpu.dcache.overallMshrMissRate::total     0.012862                       # mshr miss ratio for overall accesses (Ratio)
system.cpu.dcache.demandAvgMshrMissLatency::cpu.data 74564.963128                       # average overall mshr miss latency ((Tick/Count))
system.cpu.dcache.demandAvgMshrMissLatency::total 74564.963128                       # average overall mshr miss latency ((Tick/Count))
system.cpu.dcache.overallAvgMshrMissLatency::cpu.data 74564.963128                       # average overall mshr miss latency ((Tick/Count))
system.cpu.dcache.overallAvgMshrMissLatency::total 74564.963128                       # average overall mshr miss latency ((Tick/Count))
system.cpu.dcache.replacements                 715155                       # number of replacements (Count)
system.cpu.dcache.ReadReq.hits::cpu.data     39663749                       # number of ReadReq hits (Count)
system.cpu.dcache.ReadReq.hits::total        39663749                       # number of ReadReq hits (Count)
system.cpu.dcache.ReadReq.misses::cpu.data        27013                       # number of ReadReq misses (Count)
system.cpu.dcache.ReadReq.misses::total         27013                       # number of ReadReq misses (Count)
system.cpu.dcache.ReadReq.missLatency::cpu.data   2002183500                       # number of ReadReq miss ticks (Tick)
system.cpu.dcache.ReadReq.missLatency::total   2002183500                       # number of ReadReq miss ticks (Tick)
system.cpu.dcache.ReadReq.accesses::cpu.data     39690762                       # number of ReadReq accesses(hits+misses) (Count)
system.cpu.dcache.ReadReq.accesses::total     39690762                       # number of ReadReq accesses(hits+misses) (Count)
system.cpu.dcache.ReadReq.missRate::cpu.data     0.000681                       # miss rate for ReadReq accesses (Ratio)
system.cpu.dcache.ReadReq.missRate::total     0.000681                       # miss rate for ReadReq accesses (Ratio)
system.cpu.dcache.ReadReq.avgMissLatency::cpu.data 74119.257395                       # average ReadReq miss latency ((Tick/Count))
system.cpu.dcache.ReadReq.avgMissLatency::total 74119.257395                       # average ReadReq miss latency ((Tick/Count))
system.cpu.dcache.ReadReq.mshrMisses::cpu.data        27013                       # number of ReadReq MSHR misses (Count)
system.cpu.dcache.ReadReq.mshrMisses::total        27013                       # number of ReadReq MSHR misses (Count)
system.cpu.dcache.ReadReq.mshrMissLatency::cpu.data   1988677000                       # number of ReadReq MSHR miss ticks (Tick)
system.cpu.dcache.ReadReq.mshrMissLatency::total   1988677000                       # number of ReadReq MSHR miss ticks (Tick)
system.cpu.dcache.ReadReq.mshrMissRate::cpu.data     0.000681                       # mshr miss rate for ReadReq accesses (Ratio)
system.cpu.dcache.ReadReq.mshrMissRate::total     0.000681                       # mshr miss rate for ReadReq accesses (Ratio)
system.cpu.dcache.ReadReq.avgMshrMissLatency::cpu.data 73619.257395                       # average ReadReq mshr miss latency ((Tick/Count))
system.cpu.dcache.ReadReq.avgMshrMissLatency::total 73619.257395                       # average ReadReq mshr miss latency ((Tick/Count))
system.cpu.dcache.WriteReq.hits::cpu.data     15382537                       # number of WriteReq hits (Count)
system.cpu.dcache.WriteReq.hits::total       15382537                       # number of WriteReq hits (Count)
system.cpu.dcache.WriteReq.misses::cpu.data       690190                       # number of WriteReq misses (Count)
system.cpu.dcache.WriteReq.misses::total       690190                       # number of WriteReq misses (Count)
system.cpu.dcache.WriteReq.missLatency::cpu.data  51834633250                       # number of WriteReq miss ticks (Tick)
system.cpu.dcache.WriteReq.missLatency::total  51834633250                       # number of WriteReq miss ticks (Tick)
system.cpu.dcache.WriteReq.accesses::cpu.data     16072727                       # number of WriteReq accesses(hits+misses) (Count)
system.cpu.dcache.WriteReq.accesses::total     16072727                       # number of WriteReq accesses(hits+misses) (Count)
system.cpu.dcache.WriteReq.missRate::cpu.data     0.042942                       # miss rate for WriteReq accesses (Ratio)
system.cpu.dcache.WriteReq.missRate::total     0.042942                       # miss rate for WriteReq accesses (Ratio)
system.cpu.dcache.WriteReq.avgMissLatency::cpu.data 75101.976630                       # average WriteReq miss latency ((Tick/Count))
system.cpu.dcache.WriteReq.avgMissLatency::total 75101.976630                       # average WriteReq miss latency ((Tick/Count))
system.cpu.dcache.WriteReq.mshrMisses::cpu.data       690190                       # number of WriteReq MSHR misses (Count)
system.cpu.dcache.WriteReq.mshrMisses::total       690190                       # number of WriteReq MSHR misses (Count)
system.cpu.dcache.WriteReq.mshrMissLatency::cpu.data  51489538250                       # number of WriteReq MSHR miss ticks (Tick)
system.cpu.dcache.WriteReq.mshrMissLatency::total  51489538250                       # number of WriteReq MSHR miss ticks (Tick)
system.cpu.dcache.WriteReq.mshrMissRate::cpu.data     0.042942                       # mshr miss rate for WriteReq accesses (Ratio)
system.cpu.dcache.WriteReq.mshrMissRate::total     0.042942                       # mshr miss rate for WriteReq accesses (Ratio)
system.cpu.dcache.WriteReq.avgMshrMissLatency::cpu.data 74601.976630                       # average WriteReq mshr miss latency ((Tick/Count))
system.cpu.dcache.WriteReq.avgMshrMissLatency::total 74601.976630                       # average WriteReq mshr miss latency ((Tick/Count))
system.cpu.dcache.power_state.pwrStateResidencyTicks::UNDEFINED 144640730250                       # Cumulative time (in ticks) in various power states (Tick)
system.cpu.dcache.tags.tagsInUse          2044.972688                       # Average ticks per tags in use ((Tick/Count))
system.cpu.dcache.tags.totalRefs             55763489                       # Total number of references to valid blocks. (Count)
system.cpu.dcache.tags.sampledRefs             717203                       # Sample count of references to valid blocks. (Count)
system.cpu.dcache.tags.avgRefs              77.751333                       # Average number of references to valid blocks. ((Count/Count))
system.cpu.dcache.tags.warmupTick              153250                       # The tick when the warmup percentage was hit. (Tick)
system.cpu.dcache.tags.occupancies::cpu.data  2044.972688                       # Average occupied blocks per tick, per requestor ((Count/Tick))
system.cpu.dcache.tags.avgOccs::cpu.data     0.998522                       # Average percentage of cache occupancy ((Ratio/Tick))
system.cpu.dcache.tags.avgOccs::total        0.998522                       # Average percentage of cache occupancy ((Ratio/Tick))
system.cpu.dcache.tags.occupanciesTaskId::1024         2048                       # Occupied blocks per task id (Count)
system.cpu.dcache.tags.ageTaskId_1024::0           50                       # Occupied blocks per task id, per block age (Count)
system.cpu.dcache.tags.ageTaskId_1024::1          175                       # Occupied blocks per task id, per block age (Count)
system.cpu.dcache.tags.ageTaskId_1024::2          232                       # Occupied blocks per task id, per block age (Count)
system.cpu.dcache.tags.ageTaskId_1024::3         1431                       # Occupied blocks per task id, per block age (Count)
system.cpu.dcache.tags.ageTaskId_1024::4          160                       # Occupied blocks per task id, per block age (Count)
system.cpu.dcache.tags.ratioOccsTaskId::1024            1                       # Ratio of occupied blocks and all blocks, per task id (Ratio)
system.cpu.dcache.tags.tagAccesses          112244181                       # Number of tag accesses (Count)
system.cpu.dcache.tags.dataAccesses         112244181                       # Number of data accesses (Count)
system.cpu.dcache.tags.power_state.pwrStateResidencyTicks::UNDEFINED 144640730250                       # Cumulative time (in ticks) in various power states (Tick)
system.cpu.exec_context.thread_0.numMatAluAccesses            0                       # Number of matrix alu accesses (Count)
system.cpu.exec_context.thread_0.numCallsReturns      2849324                       # Number of times a function call or return occured (Count)
system.cpu.exec_context.thread_0.numMatInsts            0                       # Number of matrix instructions (Count)
system.cpu.exec_context.thread_0.numIdleCycles     0.004000                       # Number of idle cycles (Cycle)
system.cpu.exec_context.thread_0.numBusyCycles 578562920.996000                       # Number of busy cycles (Cycle)
system.cpu.exec_context.thread_0.notIdleFraction     1.000000                       # Percentage of non-idle cycles (Ratio)
system.cpu.exec_context.thread_0.idleFraction     0.000000                       # Percentage of idle cycles (Ratio)
system.cpu.executeStats0.numInsts                   0                       # Number of executed instructions (Count)
system.cpu.executeStats0.numNop                     0                       # Number of nop insts executed (Count)
system.cpu.executeStats0.numBranches                0                       # Number of branches executed (Count)
system.cpu.executeStats0.numLoadInsts               0                       # Number of load instructions executed (Count)
system.cpu.executeStats0.numStoreInsts       55756404                       # Number of stores executed (Count)
system.cpu.executeStats0.instRate                   0                       # Inst execution rate ((Count/Cycle))
system.cpu.executeStats0.numFpAluAccesses      1152274                       # Number of float alu accesses (Count)
system.cpu.executeStats0.numFpRegReads        1964817                       # Number of times the floating registers were read (Count)
system.cpu.executeStats0.numFpRegWrites        983743                       # Number of times the floating registers were written (Count)
system.cpu.executeStats0.numIntAluAccesses    195118021                       # Number of integer alu accesses (Count)
system.cpu.executeStats0.numIntRegReads     226164054                       # Number of times the integer registers were read (Count)
system.cpu.executeStats0.numIntRegWrites    146563918                       # Number of times the integer registers were written (Count)
system.cpu.executeStats0.numMemRefs          55756404                       # Number of memory refs (Count)
system.cpu.executeStats0.numMiscRegReads     96477565                       # Number of times the Misc registers were read (Count)
system.cpu.executeStats0.numMiscRegWrites          792                       # Number of times the Misc registers were written (Count)
system.cpu.executeStats0.numVecAluAccesses            0                       # Number of vector alu accesses (Count)
system.cpu.executeStats0.numDiscardedOps            0                       # Number of ops (including micro ops) which were discarded before commit (Count)
system.cpu.fetchStats0.numInsts             101719141                       # Number of instructions fetched (thread level) (Count)
system.cpu.fetchStats0.numOps               196184586                       # Number of ops (including micro ops) fetched (thread level) (Count)
system.cpu.fetchStats0.fetchRate             0.175813                       # Number of inst fetches per cycle ((Count/Cycle))
system.cpu.fetchStats0.numBranches           20879337                       # Number of branches fetched (Count)
system.cpu.fetchStats0.branchRate            0.036088                       # Number of branch fetches per cycle (Ratio)
system.cpu.fetchStats0.numFetchSuspends             0                       # Number of times Execute suspended instruction fetching (Count)
system.cpu.icache.demandHits::cpu.inst      126341343                       # number of demand (read+write) hits (Count)
system.cpu.icache.demandHits::total         126341343                       # number of demand (read+write) hits (Count)
system.cpu.icache.overallHits::cpu.inst     126341343                       # number of overall hits (Count)
system.cpu.icache.overallHits::total        126341343                       # number of overall hits (Count)
system.cpu.icache.demandMisses::cpu.inst         1553                       # number of demand (read+write) misses (Count)
system.cpu.icache.demandMisses::total            1553                       # number of demand (read+write) misses (Count)
system.cpu.icache.overallMisses::cpu.inst         1553                       # number of overall misses (Count)
system.cpu.icache.overallMisses::total           1553                       # number of overall misses (Count)
system.cpu.icache.demandMissLatency::cpu.inst    112043250                       # number of demand (read+write) miss ticks (Tick)
system.cpu.icache.demandMissLatency::total    112043250                       # number of demand (read+write) miss ticks (Tick)
system.cpu.icache.overallMissLatency::cpu.inst    112043250                       # number of overall miss ticks (Tick)
system.cpu.icache.overallMissLatency::total    112043250                       # number of overall miss ticks (Tick)
system.cpu.icache.demandAccesses::cpu.inst    126342896                       # number of demand (read+write) accesses (Count)
system.cpu.icache.demandAccesses::total     126342896                       # number of demand (read+write) accesses (Count)
system.cpu.icache.overallAccesses::cpu.inst    126342896                       # number of overall (read+write) accesses (Count)
system.cpu.icache.overallAccesses::total    126342896                       # number of overall (read+write) accesses (Count)
system.cpu.icache.demandMissRate::cpu.inst     0.000012                       # miss rate for demand accesses (Ratio)
system.cpu.icache.demandMissRate::total      0.000012                       # miss rate for demand accesses (Ratio)
system.cpu.icache.overallMissRate::cpu.inst     0.000012                       # miss rate for overall accesses (Ratio)
system.cpu.icache.overallMissRate::total     0.000012                       # miss rate for overall accesses (Ratio)
system.cpu.icache.demandAvgMissLatency::cpu.inst 72146.329684                       # average overall miss latency in ticks ((Tick/Count))
system.cpu.icache.demandAvgMissLatency::total 72146.329684                       # average overall miss latency in ticks ((Tick/Count))
system.cpu.icache.overallAvgMissLatency::cpu.inst 72146.329684                       # average overall miss latency ((Tick/Count))
system.cpu.icache.overallAvgMissLatency::total 72146.329684                       # average overall miss latency ((Tick/Count))
system.cpu.icache.blockedCycles::no_mshrs            0                       # number of cycles access was blocked (Cycle)
system.cpu.icache.blockedCycles::no_targets            0                       # number of cycles access was blocked (Cycle)
system.cpu.icache.blockedCauses::no_mshrs            0                       # number of times access was blocked (Count)
system.cpu.icache.blockedCauses::no_targets            0                       # number of times access was blocked (Count)
system.cpu.icache.avgBlocked::no_mshrs            nan                       # average number of cycles each access was blocked ((Cycle/Count))
system.cpu.icache.avgBlocked::no_targets          nan                       # average number of cycles each access was blocked ((Cycle/Count))
system.cpu.icache.demandMshrMisses::cpu.inst         1553                       # number of demand (read+write) MSHR misses (Count)
system.cpu.icache.demandMshrMisses::total         1553                       # number of demand (read+write) MSHR misses (Count)
system.cpu.icache.overallMshrMisses::cpu.inst         1553                       # number of overall MSHR misses (Count)
system.cpu.icache.overallMshrMisses::total         1553                       # number of overall MSHR misses (Count)
system.cpu.icache.demandMshrMissLatency::cpu.inst    111266750                       # number of demand (read+write) MSHR miss ticks (Tick)
system.cpu.icache.demandMshrMissLatency::total    111266750                       # number of demand (read+write) MSHR miss ticks (Tick)
system.cpu.icache.overallMshrMissLatency::cpu.inst    111266750                       # number of overall MSHR miss ticks (Tick)
system.cpu.icache.overallMshrMissLatency::total    111266750                       # number of overall MSHR miss ticks (Tick)
system.cpu.icache.demandMshrMissRate::cpu.inst     0.000012                       # mshr miss ratio for demand accesses (Ratio)
system.cpu.icache.demandMshrMissRate::total     0.000012                       # mshr miss ratio for demand accesses (Ratio)
system.cpu.icache.overallMshrMissRate::cpu.inst     0.000012                       # mshr miss ratio for overall accesses (Ratio)
system.cpu.icache.overallMshrMissRate::total     0.000012                       # mshr miss ratio for overall accesses (Ratio)
system.cpu.icache.demandAvgMshrMissLatency::cpu.inst 71646.329684                       # average overall mshr miss latency ((Tick/Count))
system.cpu.icache.demandAvgMshrMissLatency::total 71646.329684                       # average overall mshr miss latency ((Tick/Count))
system.cpu.icache.overallAvgMshrMissLatency::cpu.inst 71646.329684                       # average overall mshr miss latency ((Tick/Count))
system.cpu.icache.overallAvgMshrMissLatency::total 71646.329684                       # average overall mshr miss latency ((Tick/Count))
system.cpu.icache.replacements                      0                       # number of replacements (Count)
system.cpu.icache.ReadReq.hits::cpu.inst    126341343                       # number of ReadReq hits (Count)
system.cpu.icache.ReadReq.hits::total       126341343                       # number of ReadReq hits (Count)
system.cpu.icache.ReadReq.misses::cpu.inst         1553                       # number of ReadReq misses (Count)
system.cpu.icache.ReadReq.misses::total          1553                       # number of ReadReq misses (Count)
system.cpu.icache.ReadReq.missLatency::cpu.inst    112043250                       # number of ReadReq miss ticks (Tick)
system.cpu.icache.ReadReq.missLatency::total    112043250                       # number of ReadReq miss ticks (Tick)
system.cpu.icache.ReadReq.accesses::cpu.inst    126342896                       # number of ReadReq accesses(hits+misses) (Count)
system.cpu.icache.ReadReq.accesses::total    126342896                       # number of ReadReq accesses(hits+misses) (Count)
system.cpu.icache.ReadReq.missRate::cpu.inst     0.000012                       # miss rate for ReadReq accesses (Ratio)
system.cpu.icache.ReadReq.missRate::total     0.000012                       # miss rate for ReadReq accesses (Ratio)
system.cpu.icache.ReadReq.avgMissLatency::cpu.inst 72146.329684                       # average ReadReq miss latency ((Tick/Count))
system.cpu.icache.ReadReq.avgMissLatency::total 72146.329684                       # average ReadReq miss latency ((Tick/Count))
system.cpu.icache.ReadReq.mshrMisses::cpu.inst         1553                       # number of ReadReq MSHR misses (Count)
system.cpu.icache.ReadReq.mshrMisses::total         1553                       # number of ReadReq MSHR misses (Count)
system.cpu.icache.ReadReq.mshrMissLatency::cpu.inst    111266750                       # number of ReadReq MSHR miss ticks (Tick)
system.cpu.icache.ReadReq.mshrMissLatency::total    111266750                       # number of ReadReq MSHR miss ticks (Tick)
system.cpu.icache.ReadReq.mshrMissRate::cpu.inst     0.000012                       # mshr miss rate for ReadReq accesses (Ratio)
system.cpu.icache.ReadReq.mshrMissRate::total     0.000012                       # mshr miss rate for ReadReq accesses (Ratio)
system.cpu.icache.ReadReq.avgMshrMissLatency::cpu.inst 71646.329684                       # average ReadReq mshr miss latency ((Tick/Count))
system.cpu.icache.ReadReq.avgMshrMissLatency::total 71646.329684                       # average ReadReq mshr miss latency ((Tick/Count))
system.cpu.icache.power_state.pwrStateResidencyTicks::UNDEFINED 144640730250                       # Cumulative time (in ticks) in various power states (Tick)
system.cpu.icache.tags.tagsInUse          1372.565060                       # Average ticks per tags in use ((Tick/Count))
system.cpu.icache.tags.totalRefs            126342896                       # Total number of references to valid blocks. (Count)
system.cpu.icache.tags.sampledRefs               1553                       # Sample count of references to valid blocks. (Count)
system.cpu.icache.tags.avgRefs           81354.086285                       # Average number of references to valid blocks. ((Count/Count))
system.cpu.icache.tags.warmupTick               80750                       # The tick when the warmup percentage was hit. (Tick)
system.cpu.icache.tags.occupancies::cpu.inst  1372.565060                       # Average occupied blocks per tick, per requestor ((Count/Tick))
system.cpu.icache.tags.avgOccs::cpu.inst     0.083775                       # Average percentage of cache occupancy ((Ratio/Tick))
system.cpu.icache.tags.avgOccs::total        0.083775                       # Average percentage of cache occupancy ((Ratio/Tick))
system.cpu.icache.tags.occupanciesTaskId::1024         1553                       # Occupied blocks per task id (Count)
system.cpu.icache.tags.ageTaskId_1024::0           47                       # Occupied blocks per task id, per block age (Count)
system.cpu.icache.tags.ageTaskId_1024::1           57                       # Occupied blocks per task id, per block age (Count)
system.cpu.icache.tags.ageTaskId_1024::4         1449                       # Occupied blocks per task id, per block age (Count)
system.cpu.icache.tags.ratioOccsTaskId::1024     0.094788                       # Ratio of occupied blocks and all blocks, per task id (Ratio)
system.cpu.icache.tags.tagAccesses          252687345                       # Number of tag accesses (Count)
system.cpu.icache.tags.dataAccesses         252687345                       # Number of data accesses (Count)
system.cpu.icache.tags.power_state.pwrStateResidencyTicks::UNDEFINED 144640730250                       # Cumulative time (in ticks) in various power states (Tick)
system.cpu.interrupts.clk_domain.clock           4000                       # Clock period in ticks (Tick)
system.cpu.mmu.dtb.rdAccesses                39690989                       # TLB accesses on read requests (Count)
system.cpu.mmu.dtb.wrAccesses                16072756                       # TLB accesses on write requests (Count)
system.cpu.mmu.dtb.rdMisses                      1844                       # TLB misses on read requests (Count)
system.cpu.mmu.dtb.wrMisses                     28665                       # TLB misses on write requests (Count)
system.cpu.mmu.dtb.walker.power_state.pwrStateResidencyTicks::UNDEFINED 144640730250                       # Cumulative time (in ticks) in various power states (Tick)
system.cpu.mmu.itb.rdAccesses                       0                       # TLB accesses on read requests (Count)
system.cpu.mmu.itb.wrAccesses               126343009                       # TLB accesses on write requests (Count)
system.cpu.mmu.itb.rdMisses                         0                       # TLB misses on read requests (Count)
system.cpu.mmu.itb.wrMisses                       381                       # TLB misses on write requests (Count)
system.cpu.mmu.itb.walker.power_state.pwrStateResidencyTicks::UNDEFINED 144640730250                       # Cumulative time (in ticks) in various power states (Tick)
system.cpu.power_state.pwrStateResidencyTicks::ON 144640730250                       # Cumulative time (in ticks) in various power states (Tick)
system.cpu.thread_0.numInsts                        0                       # Number of Instructions committed (Count)
system.cpu.thread_0.numOps                          0                       # Number of Ops committed (Count)
system.cpu.thread_0.numMemRefs                      0                       # Number of Memory References (Count)
system.cpu.workload.numSyscalls                   122                       # Number of system calls (Count)
system.l2bus.transDist::ReadResp                28566                       # Transaction distribution (Count)
system.l2bus.transDist::WritebackDirty        1340383                       # Transaction distribution (Count)
system.l2bus.transDist::CleanEvict             574360                       # Transaction distribution (Count)
system.l2bus.transDist::ReadExReq              690190                       # Transaction distribution (Count)
system.l2bus.transDist::ReadExResp             690190                       # Transaction distribution (Count)
system.l2bus.transDist::ReadSharedReq           28566                       # Transaction distribution (Count)
system.l2bus.pktCount_system.cpu.icache.mem_side_port::system.l2cache.cpu_side_port         3106                       # Packet count per connected requestor and responder (Count)
system.l2bus.pktCount_system.cpu.dcache.mem_side_port::system.l2cache.cpu_side_port      2149561                       # Packet count per connected requestor and responder (Count)
system.l2bus.pktCount::total                  2152667                       # Packet count per connected requestor and responder (Count)
system.l2bus.pktSize_system.cpu.icache.mem_side_port::system.l2cache.cpu_side_port        99392                       # Cumulative packet size per connected requestor and responder (Byte)
system.l2bus.pktSize_system.cpu.dcache.mem_side_port::system.l2cache.cpu_side_port     90101504                       # Cumulative packet size per connected requestor and responder (Byte)
system.l2bus.pktSize::total                  90200896                       # Cumulative packet size per connected requestor and responder (Byte)
system.l2bus.snoops                           1199588                       # Total snoops (Count)
system.l2bus.snoopTraffic                    41584000                       # Total snoop traffic (Byte)
system.l2bus.snoopFanout::samples             1918344                       # Request fanout histogram (Count)
system.l2bus.snoopFanout::mean               0.278194                       # Request fanout histogram (Count)
system.l2bus.snoopFanout::stdev              0.448110                       # Request fanout histogram (Count)
system.l2bus.snoopFanout::underflows                0      0.00%      0.00% # Request fanout histogram (Count)
system.l2bus.snoopFanout::0                   1384672     72.18%     72.18% # Request fanout histogram (Count)
system.l2bus.snoopFanout::1                    533672     27.82%    100.00% # Request fanout histogram (Count)
system.l2bus.snoopFanout::2                         0      0.00%    100.00% # Request fanout histogram (Count)
system.l2bus.snoopFanout::overflows                 0      0.00%    100.00% # Request fanout histogram (Count)
system.l2bus.snoopFanout::min_value                 0                       # Request fanout histogram (Count)
system.l2bus.snoopFanout::max_value                 1                       # Request fanout histogram (Count)
system.l2bus.snoopFanout::total               1918344                       # Request fanout histogram (Count)
system.l2bus.power_state.pwrStateResidencyTicks::UNDEFINED 144640730250                       # Cumulative time (in ticks) in various power states (Tick)
system.l2bus.reqLayer0.occupancy            703794250                       # Layer occupancy (ticks) (Tick)
system.l2bus.reqLayer0.utilization                0.0                       # Layer utilization (Ratio)
system.l2bus.respLayer0.occupancy             1164750                       # Layer occupancy (ticks) (Tick)
system.l2bus.respLayer0.utilization               0.0                       # Layer utilization (Ratio)
system.l2bus.respLayer1.occupancy           537902250                       # Layer occupancy (ticks) (Tick)
system.l2bus.respLayer1.utilization               0.0                       # Layer utilization (Ratio)
system.l2bus.snoop_filter.totRequests         1433911                       # Total number of requests made to the snoop filter. (Count)
system.l2bus.snoop_filter.hitSingleRequests       715155                       # Number of requests hitting in the snoop filter with a single holder of the requested data. (Count)
system.l2bus.snoop_filter.hitMultiRequests            0                       # Number of requests hitting in the snoop filter with multiple (>1) holders of the requested data. (Count)
system.l2bus.snoop_filter.totSnoops            533672                       # Total number of snoops made to the snoop filter. (Count)
system.l2bus.snoop_filter.hitSingleSnoops       533672                       # Number of snoops hitting in the snoop filter with a single holder of the requested data. (Count)
system.l2bus.snoop_filter.hitMultiSnoops            0                       # Number of snoops hitting in the snoop filter with multiple (>1) holders of the requested data. (Count)
system.l2cache.demandHits::cpu.data             42340                       # number of demand (read+write) hits (Count)
system.l2cache.demandHits::total                42340                       # number of demand (read+write) hits (Count)
system.l2cache.overallHits::cpu.data            42340                       # number of overall hits (Count)
system.l2cache.overallHits::total               42340                       # number of overall hits (Count)
system.l2cache.demandMisses::cpu.inst            1553                       # number of demand (read+write) misses (Count)
system.l2cache.demandMisses::cpu.data          674863                       # number of demand (read+write) misses (Count)
system.l2cache.demandMisses::total             676416                       # number of demand (read+write) misses (Count)
system.l2cache.overallMisses::cpu.inst           1553                       # number of overall misses (Count)
system.l2cache.overallMisses::cpu.data         674863                       # number of overall misses (Count)
system.l2cache.overallMisses::total            676416                       # number of overall misses (Count)
system.l2cache.demandMissLatency::cpu.inst    110101500                       # number of demand (read+write) miss ticks (Tick)
system.l2cache.demandMissLatency::cpu.data  52718027750                       # number of demand (read+write) miss ticks (Tick)
system.l2cache.demandMissLatency::total   52828129250                       # number of demand (read+write) miss ticks (Tick)
system.l2cache.overallMissLatency::cpu.inst    110101500                       # number of overall miss ticks (Tick)
system.l2cache.overallMissLatency::cpu.data  52718027750                       # number of overall miss ticks (Tick)
system.l2cache.overallMissLatency::total  52828129250                       # number of overall miss ticks (Tick)
system.l2cache.demandAccesses::cpu.inst          1553                       # number of demand (read+write) accesses (Count)
system.l2cache.demandAccesses::cpu.data        717203                       # number of demand (read+write) accesses (Count)
system.l2cache.demandAccesses::total           718756                       # number of demand (read+write) accesses (Count)
system.l2cache.overallAccesses::cpu.inst         1553                       # number of overall (read+write) accesses (Count)
system.l2cache.overallAccesses::cpu.data       717203                       # number of overall (read+write) accesses (Count)
system.l2cache.overallAccesses::total          718756                       # number of overall (read+write) accesses (Count)
system.l2cache.demandMissRate::cpu.inst             1                       # miss rate for demand accesses (Ratio)
system.l2cache.demandMissRate::cpu.data      0.940965                       # miss rate for demand accesses (Ratio)
system.l2cache.demandMissRate::total         0.941093                       # miss rate for demand accesses (Ratio)
system.l2cache.overallMissRate::cpu.inst            1                       # miss rate for overall accesses (Ratio)
system.l2cache.overallMissRate::cpu.data     0.940965                       # miss rate for overall accesses (Ratio)
system.l2cache.overallMissRate::total        0.941093                       # miss rate for overall accesses (Ratio)
system.l2cache.demandAvgMissLatency::cpu.inst 70896.007727                       # average overall miss latency in ticks ((Tick/Count))
system.l2cache.demandAvgMissLatency::cpu.data 78116.636636                       # average overall miss latency in ticks ((Tick/Count))
system.l2cache.demandAvgMissLatency::total 78100.058618                       # average overall miss latency in ticks ((Tick/Count))
system.l2cache.overallAvgMissLatency::cpu.inst 70896.007727                       # average overall miss latency ((Tick/Count))
system.l2cache.overallAvgMissLatency::cpu.data 78116.636636                       # average overall miss latency ((Tick/Count))
system.l2cache.overallAvgMissLatency::total 78100.058618                       # average overall miss latency ((Tick/Count))
system.l2cache.blockedCycles::no_mshrs              0                       # number of cycles access was blocked (Cycle)
system.l2cache.blockedCycles::no_targets            0                       # number of cycles access was blocked (Cycle)
system.l2cache.blockedCauses::no_mshrs              0                       # number of times access was blocked (Count)
system.l2cache.blockedCauses::no_targets            0                       # number of times access was blocked (Count)
system.l2cache.avgBlocked::no_mshrs               nan                       # average number of cycles each access was blocked ((Cycle/Count))
system.l2cache.avgBlocked::no_targets             nan                       # average number of cycles each access was blocked ((Cycle/Count))
system.l2cache.writebacks::writebacks          649750                       # number of writebacks (Count)
system.l2cache.writebacks::total               649750                       # number of writebacks (Count)
system.l2cache.demandMshrMisses::cpu.inst         1553                       # number of demand (read+write) MSHR misses (Count)
system.l2cache.demandMshrMisses::cpu.data       674863                       # number of demand (read+write) MSHR misses (Count)
system.l2cache.demandMshrMisses::total         676416                       # number of demand (read+write) MSHR misses (Count)
system.l2cache.overallMshrMisses::cpu.inst         1553                       # number of overall MSHR misses (Count)
system.l2cache.overallMshrMisses::cpu.data       674863                       # number of overall MSHR misses (Count)
system.l2cache.overallMshrMisses::total        676416                       # number of overall MSHR misses (Count)
system.l2cache.demandMshrMissLatency::cpu.inst    102336500                       # number of demand (read+write) MSHR miss ticks (Tick)
system.l2cache.demandMshrMissLatency::cpu.data  49343712750                       # number of demand (read+write) MSHR miss ticks (Tick)
system.l2cache.demandMshrMissLatency::total  49446049250                       # number of demand (read+write) MSHR miss ticks (Tick)
system.l2cache.overallMshrMissLatency::cpu.inst    102336500                       # number of overall MSHR miss ticks (Tick)
system.l2cache.overallMshrMissLatency::cpu.data  49343712750                       # number of overall MSHR miss ticks (Tick)
system.l2cache.overallMshrMissLatency::total  49446049250                       # number of overall MSHR miss ticks (Tick)
system.l2cache.demandMshrMissRate::cpu.inst            1                       # mshr miss ratio for demand accesses (Ratio)
system.l2cache.demandMshrMissRate::cpu.data     0.940965                       # mshr miss ratio for demand accesses (Ratio)
system.l2cache.demandMshrMissRate::total     0.941093                       # mshr miss ratio for demand accesses (Ratio)
system.l2cache.overallMshrMissRate::cpu.inst            1                       # mshr miss ratio for overall accesses (Ratio)
system.l2cache.overallMshrMissRate::cpu.data     0.940965                       # mshr miss ratio for overall accesses (Ratio)
system.l2cache.overallMshrMissRate::total     0.941093                       # mshr miss ratio for overall accesses (Ratio)
system.l2cache.demandAvgMshrMissLatency::cpu.inst 65896.007727                       # average overall mshr miss latency ((Tick/Count))
system.l2cache.demandAvgMshrMissLatency::cpu.data 73116.636636                       # average overall mshr miss latency ((Tick/Count))
system.l2cache.demandAvgMshrMissLatency::total 73100.058618                       # average overall mshr miss latency ((Tick/Count))
system.l2cache.overallAvgMshrMissLatency::cpu.inst 65896.007727                       # average overall mshr miss latency ((Tick/Count))
system.l2cache.overallAvgMshrMissLatency::cpu.data 73116.636636                       # average overall mshr miss latency ((Tick/Count))
system.l2cache.overallAvgMshrMissLatency::total 73100.058618                       # average overall mshr miss latency ((Tick/Count))
system.l2cache.replacements                   1199588                       # number of replacements (Count)
system.l2cache.CleanEvict.mshrMisses::writebacks         4748                       # number of CleanEvict MSHR misses (Count)
system.l2cache.CleanEvict.mshrMisses::total         4748                       # number of CleanEvict MSHR misses (Count)
system.l2cache.CleanEvict.mshrMissRate::writebacks          inf                       # mshr miss rate for CleanEvict accesses (Ratio)
system.l2cache.CleanEvict.mshrMissRate::total          inf                       # mshr miss rate for CleanEvict accesses (Ratio)
system.l2cache.ReadExReq.hits::cpu.data         40640                       # number of ReadExReq hits (Count)
system.l2cache.ReadExReq.hits::total            40640                       # number of ReadExReq hits (Count)
system.l2cache.ReadExReq.misses::cpu.data       649550                       # number of ReadExReq misses (Count)
system.l2cache.ReadExReq.misses::total         649550                       # number of ReadExReq misses (Count)
system.l2cache.ReadExReq.missLatency::cpu.data  50758535750                       # number of ReadExReq miss ticks (Tick)
system.l2cache.ReadExReq.missLatency::total  50758535750                       # number of ReadExReq miss ticks (Tick)
system.l2cache.ReadExReq.accesses::cpu.data       690190                       # number of ReadExReq accesses(hits+misses) (Count)
system.l2cache.ReadExReq.accesses::total       690190                       # number of ReadExReq accesses(hits+misses) (Count)
system.l2cache.ReadExReq.missRate::cpu.data     0.941118                       # miss rate for ReadExReq accesses (Ratio)
system.l2cache.ReadExReq.missRate::total     0.941118                       # miss rate for ReadExReq accesses (Ratio)
system.l2cache.ReadExReq.avgMissLatency::cpu.data 78144.154799                       # average ReadExReq miss latency ((Tick/Count))
system.l2cache.ReadExReq.avgMissLatency::total 78144.154799                       # average ReadExReq miss latency ((Tick/Count))
system.l2cache.ReadExReq.mshrMisses::cpu.data       649550                       # number of ReadExReq MSHR misses (Count)
system.l2cache.ReadExReq.mshrMisses::total       649550                       # number of ReadExReq MSHR misses (Count)
system.l2cache.ReadExReq.mshrMissLatency::cpu.data  47510785750                       # number of ReadExReq MSHR miss ticks (Tick)
system.l2cache.ReadExReq.mshrMissLatency::total  47510785750                       # number of ReadExReq MSHR miss ticks (Tick)
system.l2cache.ReadExReq.mshrMissRate::cpu.data     0.941118                       # mshr miss rate for ReadExReq accesses (Ratio)
system.l2cache.ReadExReq.mshrMissRate::total     0.941118                       # mshr miss rate for ReadExReq accesses (Ratio)
system.l2cache.ReadExReq.avgMshrMissLatency::cpu.data 73144.154799                       # average ReadExReq mshr miss latency ((Tick/Count))
system.l2cache.ReadExReq.avgMshrMissLatency::total 73144.154799                       # average ReadExReq mshr miss latency ((Tick/Count))
system.l2cache.ReadSharedReq.hits::cpu.data         1700                       # number of ReadSharedReq hits (Count)
system.l2cache.ReadSharedReq.hits::total         1700                       # number of ReadSharedReq hits (Count)
system.l2cache.ReadSharedReq.misses::cpu.inst         1553                       # number of ReadSharedReq misses (Count)
system.l2cache.ReadSharedReq.misses::cpu.data        25313                       # number of ReadSharedReq misses (Count)
system.l2cache.ReadSharedReq.misses::total        26866                       # number of ReadSharedReq misses (Count)
system.l2cache.ReadSharedReq.missLatency::cpu.inst    110101500                       # number of ReadSharedReq miss ticks (Tick)
system.l2cache.ReadSharedReq.missLatency::cpu.data   1959492000                       # number of ReadSharedReq miss ticks (Tick)
system.l2cache.ReadSharedReq.missLatency::total   2069593500                       # number of ReadSharedReq miss ticks (Tick)
system.l2cache.ReadSharedReq.accesses::cpu.inst         1553                       # number of ReadSharedReq accesses(hits+misses) (Count)
system.l2cache.ReadSharedReq.accesses::cpu.data        27013                       # number of ReadSharedReq accesses(hits+misses) (Count)
system.l2cache.ReadSharedReq.accesses::total        28566                       # number of ReadSharedReq accesses(hits+misses) (Count)
system.l2cache.ReadSharedReq.missRate::cpu.inst            1                       # miss rate for ReadSharedReq accesses (Ratio)
system.l2cache.ReadSharedReq.missRate::cpu.data     0.937067                       # miss rate for ReadSharedReq accesses (Ratio)
system.l2cache.ReadSharedReq.missRate::total     0.940489                       # miss rate for ReadSharedReq accesses (Ratio)
system.l2cache.ReadSharedReq.avgMissLatency::cpu.inst 70896.007727                       # average ReadSharedReq miss latency ((Tick/Count))
system.l2cache.ReadSharedReq.avgMissLatency::cpu.data 77410.500533                       # average ReadSharedReq miss latency ((Tick/Count))
system.l2cache.ReadSharedReq.avgMissLatency::total 77033.927641                       # average ReadSharedReq miss latency ((Tick/Count))
system.l2cache.ReadSharedReq.mshrMisses::cpu.inst         1553                       # number of ReadSharedReq MSHR misses (Count)
system.l2cache.ReadSharedReq.mshrMisses::cpu.data        25313                       # number of ReadSharedReq MSHR misses (Count)
system.l2cache.ReadSharedReq.mshrMisses::total        26866                       # number of ReadSharedReq MSHR misses (Count)
system.l2cache.ReadSharedReq.mshrMissLatency::cpu.inst    102336500                       # number of ReadSharedReq MSHR miss ticks (Tick)
system.l2cache.ReadSharedReq.mshrMissLatency::cpu.data   1832927000                       # number of ReadSharedReq MSHR miss ticks (Tick)
system.l2cache.ReadSharedReq.mshrMissLatency::total   1935263500                       # number of ReadSharedReq MSHR miss ticks (Tick)
system.l2cache.ReadSharedReq.mshrMissRate::cpu.inst            1                       # mshr miss rate for ReadSharedReq accesses (Ratio)
system.l2cache.ReadSharedReq.mshrMissRate::cpu.data     0.937067                       # mshr miss rate for ReadSharedReq accesses (Ratio)
system.l2cache.ReadSharedReq.mshrMissRate::total     0.940489                       # mshr miss rate for ReadSharedReq accesses (Ratio)
system.l2cache.ReadSharedReq.avgMshrMissLatency::cpu.inst 65896.007727                       # average ReadSharedReq mshr miss latency ((Tick/Count))
system.l2cache.ReadSharedReq.avgMshrMissLatency::cpu.data 72410.500533                       # average ReadSharedReq mshr miss latency ((Tick/Count))
system.l2cache.ReadSharedReq.avgMshrMissLatency::total 72033.927641                       # average ReadSharedReq mshr miss latency ((Tick/Count))
system.l2cache.WritebackDirty.hits::writebacks       690633                       # number of WritebackDirty hits (Count)
system.l2cache.WritebackDirty.hits::total       690633                       # number of WritebackDirty hits (Count)
system.l2cache.WritebackDirty.accesses::writebacks       690633                       # number of WritebackDirty accesses(hits+misses) (Count)
system.l2cache.WritebackDirty.accesses::total       690633                       # number of WritebackDirty accesses(hits+misses) (Count)
system.l2cache.power_state.pwrStateResidencyTicks::UNDEFINED 144640730250                       # Cumulative time (in ticks) in various power states (Tick)
system.l2cache.tags.tagsInUse             4088.487995                       # Average ticks per tags in use ((Tick/Count))
system.l2cache.tags.totalRefs                 1429163                       # Total number of references to valid blocks. (Count)
system.l2cache.tags.sampledRefs               1203684                       # Sample count of references to valid blocks. (Count)
system.l2cache.tags.avgRefs                  1.187324                       # Average number of references to valid blocks. ((Count/Count))
system.l2cache.tags.warmupTick                  75500                       # The tick when the warmup percentage was hit. (Tick)
system.l2cache.tags.occupancies::writebacks  1117.770467                       # Average occupied blocks per tick, per requestor ((Count/Tick))
system.l2cache.tags.occupancies::cpu.inst    14.822474                       # Average occupied blocks per tick, per requestor ((Count/Tick))
system.l2cache.tags.occupancies::cpu.data  2955.895054                       # Average occupied blocks per tick, per requestor ((Count/Tick))
system.l2cache.tags.avgOccs::writebacks      0.272893                       # Average percentage of cache occupancy ((Ratio/Tick))
system.l2cache.tags.avgOccs::cpu.inst        0.003619                       # Average percentage of cache occupancy ((Ratio/Tick))
system.l2cache.tags.avgOccs::cpu.data        0.721654                       # Average percentage of cache occupancy ((Ratio/Tick))
system.l2cache.tags.avgOccs::total           0.998166                       # Average percentage of cache occupancy ((Ratio/Tick))
system.l2cache.tags.occupanciesTaskId::1024         4096                       # Occupied blocks per task id (Count)
system.l2cache.tags.ageTaskId_1024::0              99                       # Occupied blocks per task id, per block age (Count)
system.l2cache.tags.ageTaskId_1024::1             239                       # Occupied blocks per task id, per block age (Count)
system.l2cache.tags.ageTaskId_1024::2             249                       # Occupied blocks per task id, per block age (Count)
system.l2cache.tags.ageTaskId_1024::3            2179                       # Occupied blocks per task id, per block age (Count)
system.l2cache.tags.ageTaskId_1024::4            1330                       # Occupied blocks per task id, per block age (Count)
system.l2cache.tags.ratioOccsTaskId::1024            1                       # Ratio of occupied blocks and all blocks, per task id (Ratio)
system.l2cache.tags.tagAccesses              12674972                       # Number of tag accesses (Count)
system.l2cache.tags.dataAccesses             12674972                       # Number of data accesses (Count)
system.l2cache.tags.power_state.pwrStateResidencyTicks::UNDEFINED 144640730250                       # Cumulative time (in ticks) in various power states (Tick)
system.mem_ctrl.avgPriority_writebacks::samples   1299500.00                       # Average QoS priority value for accepted requests (Count)
system.mem_ctrl.avgPriority_cpu.inst::samples      3106.00                       # Average QoS priority value for accepted requests (Count)
system.mem_ctrl.avgPriority_cpu.data::samples   1349685.00                       # Average QoS priority value for accepted requests (Count)
system.mem_ctrl.priorityMinLatency       0.000000019000                       # per QoS priority minimum request to response latency (Second)
system.mem_ctrl.priorityMaxLatency       0.001651347000                       # per QoS priority maximum request to response latency (Second)
system.mem_ctrl.numReadWriteTurnArounds         79542                       # Number of turnarounds from READ to WRITE (Count)
system.mem_ctrl.numWriteReadTurnArounds         79542                       # Number of turnarounds from WRITE to READ (Count)
system.mem_ctrl.numStayReadState              2635377                       # Number of times bus staying in READ state (Count)
system.mem_ctrl.numStayWriteState             1221501                       # Number of times bus staying in WRITE state (Count)
system.mem_ctrl.readReqs                       676416                       # Number of read requests accepted (Count)
system.mem_ctrl.writeReqs                      649750                       # Number of write requests accepted (Count)
system.mem_ctrl.readBursts                    1352832                       # Number of controller read bursts, including those serviced by the write queue (Count)
system.mem_ctrl.writeBursts                   1299500                       # Number of controller write bursts, including those merged in the write queue (Count)
system.mem_ctrl.servicedByWrQ                      41                       # Number of controller read bursts serviced by the write queue (Count)
system.mem_ctrl.mergedWrBursts                      0                       # Number of controller write bursts merged with an existing one (Count)
system.mem_ctrl.neitherReadNorWriteReqs             0                       # Number of requests that are neither read nor write (Count)
system.mem_ctrl.avgRdQLen                        2.00                       # Average read queue length when enqueuing ((Count/Tick))
system.mem_ctrl.avgWrQLen                       25.24                       # Average write queue length when enqueuing ((Count/Tick))
system.mem_ctrl.numRdRetry                          0                       # Number of times read queue was full causing retry (Count)
system.mem_ctrl.numWrRetry                          0                       # Number of times write queue was full causing retry (Count)
system.mem_ctrl.readPktSize::0                      0                       # Read request sizes (log2) (Count)
system.mem_ctrl.readPktSize::1                      0                       # Read request sizes (log2) (Count)
system.mem_ctrl.readPktSize::2                      0                       # Read request sizes (log2) (Count)
system.mem_ctrl.readPktSize::3                      0                       # Read request sizes (log2) (Count)
system.mem_ctrl.readPktSize::4                      0                       # Read request sizes (log2) (Count)
system.mem_ctrl.readPktSize::5                1352832                       # Read request sizes (log2) (Count)
system.mem_ctrl.readPktSize::6                      0                       # Read request sizes (log2) (Count)
system.mem_ctrl.writePktSize::0                     0                       # Write request sizes (log2) (Count)
system.mem_ctrl.writePktSize::1                     0                       # Write request sizes (log2) (Count)
system.mem_ctrl.writePktSize::2                     0                       # Write request sizes (log2) (Count)
system.mem_ctrl.writePktSize::3                     0                       # Write request sizes (log2) (Count)
system.mem_ctrl.writePktSize::4                     0                       # Write request sizes (log2) (Count)
system.mem_ctrl.writePktSize::5               1299500                       # Write request sizes (log2) (Count)
system.mem_ctrl.writePktSize::6                     0                       # Write request sizes (log2) (Count)
system.mem_ctrl.rdQLenPdf::0                   676395                       # What read queue length does an incoming req see (Count)
system.mem_ctrl.rdQLenPdf::1                   676394                       # What read queue length does an incoming req see (Count)
system.mem_ctrl.rdQLenPdf::2                        1                       # What read queue length does an incoming req see (Count)
system.mem_ctrl.rdQLenPdf::3                        1                       # What read queue length does an incoming req see (Count)
system.mem_ctrl.rdQLenPdf::4                        0                       # What read queue length does an incoming req see (Count)
system.mem_ctrl.rdQLenPdf::5                        0                       # What read queue length does an incoming req see (Count)
system.mem_ctrl.rdQLenPdf::6                        0                       # What read queue length does an incoming req see (Count)
system.mem_ctrl.rdQLenPdf::7                        0                       # What read queue length does an incoming req see (Count)
system.mem_ctrl.rdQLenPdf::8                        0                       # What read queue length does an incoming req see (Count)
system.mem_ctrl.rdQLenPdf::9                        0                       # What read queue length does an incoming req see (Count)
system.mem_ctrl.rdQLenPdf::10                       0                       # What read queue length does an incoming req see (Count)
system.mem_ctrl.rdQLenPdf::11                       0                       # What read queue length does an incoming req see (Count)
system.mem_ctrl.rdQLenPdf::12                       0                       # What read queue length does an incoming req see (Count)
system.mem_ctrl.rdQLenPdf::13                       0                       # What read queue length does an incoming req see (Count)
system.mem_ctrl.rdQLenPdf::14                       0                       # What read queue length does an incoming req see (Count)
system.mem_ctrl.rdQLenPdf::15                       0                       # What read queue length does an incoming req see (Count)
system.mem_ctrl.rdQLenPdf::16                       0                       # What read queue length does an incoming req see (Count)
system.mem_ctrl.rdQLenPdf::17                       0                       # What read queue length does an incoming req see (Count)
system.mem_ctrl.rdQLenPdf::18                       0                       # What read queue length does an incoming req see (Count)
system.mem_ctrl.rdQLenPdf::19                       0                       # What read queue length does an incoming req see (Count)
system.mem_ctrl.rdQLenPdf::20                       0                       # What read queue length does an incoming req see (Count)
system.mem_ctrl.rdQLenPdf::21                       0                       # What read queue length does an incoming req see (Count)
system.mem_ctrl.rdQLenPdf::22                       0                       # What read queue length does an incoming req see (Count)
system.mem_ctrl.rdQLenPdf::23                       0                       # What read queue length does an incoming req see (Count)
system.mem_ctrl.rdQLenPdf::24                       0                       # What read queue length does an incoming req see (Count)
system.mem_ctrl.rdQLenPdf::25                       0                       # What read queue length does an incoming req see (Count)
system.mem_ctrl.rdQLenPdf::26                       0                       # What read queue length does an incoming req see (Count)
system.mem_ctrl.rdQLenPdf::27                       0                       # What read queue length does an incoming req see (Count)
system.mem_ctrl.rdQLenPdf::28                       0                       # What read queue length does an incoming req see (Count)
system.mem_ctrl.rdQLenPdf::29                       0                       # What read queue length does an incoming req see (Count)
system.mem_ctrl.rdQLenPdf::30                       0                       # What read queue length does an incoming req see (Count)
system.mem_ctrl.rdQLenPdf::31                       0                       # What read queue length does an incoming req see (Count)
system.mem_ctrl.wrQLenPdf::0                        1                       # What write queue length does an incoming req see (Count)
system.mem_ctrl.wrQLenPdf::1                        1                       # What write queue length does an incoming req see (Count)
system.mem_ctrl.wrQLenPdf::2                        1                       # What write queue length does an incoming req see (Count)
system.mem_ctrl.wrQLenPdf::3                        1                       # What write queue length does an incoming req see (Count)
system.mem_ctrl.wrQLenPdf::4                        1                       # What write queue length does an incoming req see (Count)
system.mem_ctrl.wrQLenPdf::5                        1                       # What write queue length does an incoming req see (Count)
system.mem_ctrl.wrQLenPdf::6                        1                       # What write queue length does an incoming req see (Count)
system.mem_ctrl.wrQLenPdf::7                        1                       # What write queue length does an incoming req see (Count)
system.mem_ctrl.wrQLenPdf::8                        1                       # What write queue length does an incoming req see (Count)
system.mem_ctrl.wrQLenPdf::9                        1                       # What write queue length does an incoming req see (Count)
system.mem_ctrl.wrQLenPdf::10                       1                       # What write queue length does an incoming req see (Count)
system.mem_ctrl.wrQLenPdf::11                       1                       # What write queue length does an incoming req see (Count)
system.mem_ctrl.wrQLenPdf::12                       1                       # What write queue length does an incoming req see (Count)
system.mem_ctrl.wrQLenPdf::13                       1                       # What write queue length does an incoming req see (Count)
system.mem_ctrl.wrQLenPdf::14                       1                       # What write queue length does an incoming req see (Count)
system.mem_ctrl.wrQLenPdf::15                   11370                       # What write queue length does an incoming req see (Count)
system.mem_ctrl.wrQLenPdf::16                   12143                       # What write queue length does an incoming req see (Count)
system.mem_ctrl.wrQLenPdf::17                   60000                       # What write queue length does an incoming req see (Count)
system.mem_ctrl.wrQLenPdf::18                   71188                       # What write queue length does an incoming req see (Count)
system.mem_ctrl.wrQLenPdf::19                   77177                       # What write queue length does an incoming req see (Count)
system.mem_ctrl.wrQLenPdf::20                   79607                       # What write queue length does an incoming req see (Count)
[...]
system.mem_ctrl.requestorReadRate::cpu.data 298601368.545012593269                       # Per-requestor bytes read from memory rate ((Byte/Second))
system.mem_ctrl.requestorWriteRate::writebacks 287493460.024203658104                       # Per-requestor bytes write to memory rate ((Byte/Second))
system.mem_ctrl.requestorReadAccesses::cpu.inst         3106                       # Per-requestor read serviced memory accesses (Count)
system.mem_ctrl.requestorReadAccesses::cpu.data      1349726                       # Per-requestor read serviced memory accesses (Count)
system.mem_ctrl.requestorWriteAccesses::writebacks      1299500                       # Per-requestor write serviced memory accesses (Count)
system.mem_ctrl.requestorReadTotalLat::cpu.inst    112269500                       # Per-requestor read total memory access latency (Tick)
system.mem_ctrl.requestorReadTotalLat::cpu.data  58244101500                       # Per-requestor read total memory access latency (Tick)
system.mem_ctrl.requestorWriteTotalLat::writebacks 2467804699250                       # Per-requestor write total memory access latency (Tick)
system.mem_ctrl.requestorReadAvgLat::cpu.inst     36146.01                       # Per-requestor read average memory access latency ((Tick/Count))
system.mem_ctrl.requestorReadAvgLat::cpu.data     43152.54                       # Per-requestor read average memory access latency ((Tick/Count))
system.mem_ctrl.requestorWriteAvgLat::writebacks   1899041.71                       # Per-requestor write average memory access latency ((Tick/Count))
system.mem_ctrl.dram.bytesRead::cpu.inst        99392                       # Number of bytes read from this memory (Byte)
system.mem_ctrl.dram.bytesRead::cpu.data     43191232                       # Number of bytes read from this memory (Byte)
system.mem_ctrl.dram.bytesRead::total        43290624                       # Number of bytes read from this memory (Byte)
system.mem_ctrl.dram.bytesInstRead::cpu.inst        99392                       # Number of instructions bytes read from this memory (Byte)
system.mem_ctrl.dram.bytesInstRead::total        99392                       # Number of instructions bytes read from this memory (Byte)
system.mem_ctrl.dram.bytesWritten::writebacks     41584000                       # Number of bytes written to this memory (Byte)
system.mem_ctrl.dram.bytesWritten::total     41584000                       # Number of bytes written to this memory (Byte)
system.mem_ctrl.dram.numReads::cpu.inst          1553                       # Number of read requests responded to by this memory (Count)
system.mem_ctrl.dram.numReads::cpu.data        674863                       # Number of read requests responded to by this memory (Count)
system.mem_ctrl.dram.numReads::total           676416                       # Number of read requests responded to by this memory (Count)
system.mem_ctrl.dram.numWrites::writebacks       649750                       # Number of write requests responded to by this memory (Count)
system.mem_ctrl.dram.numWrites::total          649750                       # Number of write requests responded to by this memory (Count)
system.mem_ctrl.dram.bwRead::cpu.inst          687165                       # Total read bandwidth from this memory ((Byte/Second))
system.mem_ctrl.dram.bwRead::cpu.data       298610439                       # Total read bandwidth from this memory ((Byte/Second))
system.mem_ctrl.dram.bwRead::total          299297604                       # Total read bandwidth from this memory ((Byte/Second))
system.mem_ctrl.dram.bwInstRead::cpu.inst       687165                       # Instruction read bandwidth from this memory ((Byte/Second))
system.mem_ctrl.dram.bwInstRead::total         687165                       # Instruction read bandwidth from this memory ((Byte/Second))
system.mem_ctrl.dram.bwWrite::writebacks    287498548                       # Write bandwidth from this memory ((Byte/Second))
system.mem_ctrl.dram.bwWrite::total         287498548                       # Write bandwidth from this memory ((Byte/Second))
system.mem_ctrl.dram.bwTotal::writebacks    287498548                       # Total bandwidth to/from this memory ((Byte/Second))
system.mem_ctrl.dram.bwTotal::cpu.inst         687165                       # Total bandwidth to/from this memory ((Byte/Second))
system.mem_ctrl.dram.bwTotal::cpu.data      298610439                       # Total bandwidth to/from this memory ((Byte/Second))
system.mem_ctrl.dram.bwTotal::total         586796152                       # Total bandwidth to/from this memory ((Byte/Second))
system.mem_ctrl.dram.readBursts               1352791                       # Number of DRAM read bursts (Count)
system.mem_ctrl.dram.writeBursts              1299477                       # Number of DRAM write bursts (Count)
system.mem_ctrl.dram.perBankRdBursts::0         84720                       # Per bank write bursts (Count)
system.mem_ctrl.dram.perBankRdBursts::1         84658                       # Per bank write bursts (Count)
system.mem_ctrl.dram.perBankRdBursts::2         84626                       # Per bank write bursts (Count)
system.mem_ctrl.dram.perBankRdBursts::3         84736                       # Per bank write bursts (Count)
system.mem_ctrl.dram.perBankRdBursts::4         85470                       # Per bank write bursts (Count)
system.mem_ctrl.dram.perBankRdBursts::5         85694                       # Per bank write bursts (Count)
system.mem_ctrl.dram.perBankRdBursts::6         85896                       # Per bank write bursts (Count)
system.mem_ctrl.dram.perBankRdBursts::7         84434                       # Per bank write bursts (Count)
system.mem_ctrl.dram.perBankRdBursts::8         83318                       # Per bank write bursts (Count)
system.mem_ctrl.dram.perBankRdBursts::9         83296                       # Per bank write bursts (Count)
system.mem_ctrl.dram.perBankRdBursts::10        83486                       # Per bank write bursts (Count)
system.mem_ctrl.dram.perBankRdBursts::11        83802                       # Per bank write bursts (Count)
system.mem_ctrl.dram.perBankRdBursts::12        84474                       # Per bank write bursts (Count)
system.mem_ctrl.dram.perBankRdBursts::13        84650                       # Per bank write bursts (Count)
system.mem_ctrl.dram.perBankRdBursts::14        84620                       # Per bank write bursts (Count)
system.mem_ctrl.dram.perBankRdBursts::15        84911                       # Per bank write bursts (Count)
system.mem_ctrl.dram.perBankWrBursts::0         81344                       # Per bank write bursts (Count)
system.mem_ctrl.dram.perBankWrBursts::1         81134                       # Per bank write bursts (Count)
system.mem_ctrl.dram.perBankWrBursts::2         81228                       # Per bank write bursts (Count)
system.mem_ctrl.dram.perBankWrBursts::3         81182                       # Per bank write bursts (Count)
system.mem_ctrl.dram.perBankWrBursts::4         82120                       # Per bank write bursts (Count)
system.mem_ctrl.dram.perBankWrBursts::5         82214                       # Per bank write bursts (Count)
system.mem_ctrl.dram.perBankWrBursts::6         82526                       # Per bank write bursts (Count)
system.mem_ctrl.dram.perBankWrBursts::7         81030                       # Per bank write bursts (Count)
system.mem_ctrl.dram.perBankWrBursts::8         80074                       # Per bank write bursts (Count)
system.mem_ctrl.dram.perBankWrBursts::9         80021                       # Per bank write bursts (Count)
system.mem_ctrl.dram.perBankWrBursts::10        80152                       # Per bank write bursts (Count)
system.mem_ctrl.dram.perBankWrBursts::11        80496                       # Per bank write bursts (Count)
system.mem_ctrl.dram.perBankWrBursts::12        81334                       # Per bank write bursts (Count)
system.mem_ctrl.dram.perBankWrBursts::13        81378                       # Per bank write bursts (Count)
system.mem_ctrl.dram.perBankWrBursts::14        81552                       # Per bank write bursts (Count)
system.mem_ctrl.dram.perBankWrBursts::15        81692                       # Per bank write bursts (Count)
system.mem_ctrl.dram.totQLat              32653342000                       # Total ticks spent queuing (Tick)
system.mem_ctrl.dram.totBusLat             5411164000                       # Total ticks spent in databus transfers (Tick)
system.mem_ctrl.dram.totMemAccLat         58356371000                       # Total ticks spent from burst creation until serviced by the DRAM (Tick)
system.mem_ctrl.dram.avgQLat                 24137.76                       # Average queueing delay per DRAM burst ((Tick/Count))
system.mem_ctrl.dram.avgBusLat                4000.00                       # Average bus latency per DRAM burst ((Tick/Count))
system.mem_ctrl.dram.avgMemAccLat            43137.76                       # Average memory access latency per DRAM burst ((Tick/Count))
system.mem_ctrl.dram.readRowHits              1154986                       # Number of row buffer hits during reads (Count)
system.mem_ctrl.dram.writeRowHits             1011704                       # Number of row buffer hits during writes (Count)
system.mem_ctrl.dram.readRowHitRate             85.38                       # Row buffer hit rate for reads (Ratio)
system.mem_ctrl.dram.writeRowHitRate            77.85                       # Row buffer hit rate for writes (Ratio)
system.mem_ctrl.dram.bytesPerActivate::samples       485571                       # Bytes accessed per row activation (Byte)
system.mem_ctrl.dram.bytesPerActivate::mean   174.786715                       # Bytes accessed per row activation (Byte)
system.mem_ctrl.dram.bytesPerActivate::gmean   126.619454                       # Bytes accessed per row activation (Byte)
system.mem_ctrl.dram.bytesPerActivate::stdev   147.741088                       # Bytes accessed per row activation (Byte)
system.mem_ctrl.dram.bytesPerActivate::0-63        16476      3.39%      3.39% # Bytes accessed per row activation (Byte)
system.mem_ctrl.dram.bytesPerActivate::64-127       211846     43.63%     47.02% # Bytes accessed per row activation (Byte)
system.mem_ctrl.dram.bytesPerActivate::128-191        83801     17.26%     64.28% # Bytes accessed per row activation (Byte)
system.mem_ctrl.dram.bytesPerActivate::192-255        44589      9.18%     73.46% # Bytes accessed per row activation (Byte)
system.mem_ctrl.dram.bytesPerActivate::256-319        31046      6.39%     79.86% # Bytes accessed per row activation (Byte)
system.mem_ctrl.dram.bytesPerActivate::320-383        22583      4.65%     84.51% # Bytes accessed per row activation (Byte)
system.mem_ctrl.dram.bytesPerActivate::384-447        19434      4.00%     88.51% # Bytes accessed per row activation (Byte)
system.mem_ctrl.dram.bytesPerActivate::448-511        14274      2.94%     91.45% # Bytes accessed per row activation (Byte)
system.mem_ctrl.dram.bytesPerActivate::512-575        41522      8.55%    100.00% # Bytes accessed per row activation (Byte)
system.mem_ctrl.dram.bytesPerActivate::total       485571                       # Bytes accessed per row activation (Byte)
system.mem_ctrl.dram.dramBytesRead           43289312                       # Total bytes read (Byte)
system.mem_ctrl.dram.dramBytesWritten        41583264                       # Total bytes written (Byte)
system.mem_ctrl.dram.avgRdBW               299.288533                       # Average DRAM read bandwidth in MiBytes/s ((Byte/Second))
system.mem_ctrl.dram.avgWrBW               287.493460                       # Average DRAM write bandwidth in MiBytes/s ((Byte/Second))
system.mem_ctrl.dram.peakBW                   8000.00                       # Theoretical peak bandwidth in MiByte/s ((Byte/Second))
system.mem_ctrl.dram.busUtil                     7.33                       # Data bus utilization in percentage (Ratio)
system.mem_ctrl.dram.busUtilRead                 3.74                       # Data bus utilization in percentage for reads (Ratio)
system.mem_ctrl.dram.busUtilWrite                3.59                       # Data bus utilization in percentage for writes (Ratio)
system.mem_ctrl.dram.pageHitRate                81.69                       # Row buffer hit rate, read and write combined (Ratio)
system.mem_ctrl.dram.power_state.pwrStateResidencyTicks::UNDEFINED 144640730250                       # Cumulative time (in ticks) in various power states (Tick)
system.mem_ctrl.dram.rank0.actEnergy                0                       # Energy for activate commands per rank (pJ) (Joule)
system.mem_ctrl.dram.rank0.preEnergy                0                       # Energy for precharge commands per rank (pJ) (Joule)
system.mem_ctrl.dram.rank0.readEnergy               0                       # Energy for read commands per rank (pJ) (Joule)
system.mem_ctrl.dram.rank0.writeEnergy              0                       # Energy for write commands per rank (pJ) (Joule)
system.mem_ctrl.dram.rank0.refreshEnergy            0                       # Energy for refresh commands per rank (pJ) (Joule)
system.mem_ctrl.dram.rank0.actBackEnergy            0                       # Energy for active background per rank (pJ) (Joule)
system.mem_ctrl.dram.rank0.preBackEnergy            0                       # Energy for precharge background per rank (pJ) (Joule)
system.mem_ctrl.dram.rank0.actPowerDownEnergy            0                       # Energy for active power-down per rank (pJ) (Joule)
system.mem_ctrl.dram.rank0.prePowerDownEnergy            0                       # Energy for precharge power-down per rank (pJ) (Joule)
system.mem_ctrl.dram.rank0.selfRefreshEnergy            0                       # Energy for self refresh per rank (pJ) (Joule)
system.mem_ctrl.dram.rank0.totalEnergy              0                       # Total energy per rank (pJ) (Joule)
system.mem_ctrl.dram.rank0.averagePower             0                       # Core power per rank (mW) (Watt)
system.mem_ctrl.dram.rank0.totalIdleTime            0                       # Total Idle time Per DRAM Rank (Tick)
system.mem_ctrl.dram.rank0.pwrStateTime::IDLE  26539026500                       # Time in different power states (Tick)
system.mem_ctrl.dram.rank0.pwrStateTime::REF   9679800000                       # Time in different power states (Tick)
system.mem_ctrl.dram.rank0.pwrStateTime::SREF            0                       # Time in different power states (Tick)
system.mem_ctrl.dram.rank0.pwrStateTime::PRE_PDN            0                       # Time in different power states (Tick)
system.mem_ctrl.dram.rank0.pwrStateTime::ACT 108421903750                       # Time in different power states (Tick)
system.mem_ctrl.dram.rank0.pwrStateTime::ACT_PDN            0                       # Time in different power states (Tick)
system.mem_ctrl.power_state.pwrStateResidencyTicks::UNDEFINED 144640730250                       # Cumulative time (in ticks) in various power states (Tick)
system.membus.transDist::ReadResp               26866                       # Transaction distribution (Count)
system.membus.transDist::WritebackDirty        649750                       # Transaction distribution (Count)
system.membus.transDist::CleanEvict             20914                       # Transaction distribution (Count)
system.membus.transDist::ReadExReq             649550                       # Transaction distribution (Count)
system.membus.transDist::ReadExResp            649550                       # Transaction distribution (Count)
system.membus.transDist::ReadSharedReq          26866                       # Transaction distribution (Count)
system.membus.pktCount_system.l2cache.mem_side_port::system.mem_ctrl.port      2023496                       # Packet count per connected requestor and responder (Count)
system.membus.pktCount_system.l2cache.mem_side_port::total      2023496                       # Packet count per connected requestor and responder (Count)
system.membus.pktCount::total                 2023496                       # Packet count per connected requestor and responder (Count)
system.membus.pktSize_system.l2cache.mem_side_port::system.mem_ctrl.port     84874624                       # Cumulative packet size per connected requestor and responder (Byte)
system.membus.pktSize_system.l2cache.mem_side_port::total     84874624                       # Cumulative packet size per connected requestor and responder (Byte)
system.membus.pktSize::total                 84874624                       # Cumulative packet size per connected requestor and responder (Byte)
system.membus.snoops                                0                       # Total snoops (Count)
system.membus.snoopTraffic                          0                       # Total snoop traffic (Byte)
system.membus.snoopFanout::samples             676416                       # Request fanout histogram (Count)
system.membus.snoopFanout::mean                     0                       # Request fanout histogram (Count)
system.membus.snoopFanout::stdev                    0                       # Request fanout histogram (Count)
system.membus.snoopFanout::underflows               0      0.00%      0.00% # Request fanout histogram (Count)
system.membus.snoopFanout::0                   676416    100.00%    100.00% # Request fanout histogram (Count)
system.membus.snoopFanout::1                        0      0.00%    100.00% # Request fanout histogram (Count)
system.membus.snoopFanout::overflows                0      0.00%    100.00% # Request fanout histogram (Count)
system.membus.snoopFanout::min_value                0                       # Request fanout histogram (Count)
system.membus.snoopFanout::max_value                0                       # Request fanout histogram (Count)
system.membus.snoopFanout::total               676416                       # Request fanout histogram (Count)
system.membus.power_state.pwrStateResidencyTicks::UNDEFINED 144640730250                       # Cumulative time (in ticks) in various power states (Tick)
system.membus.reqLayer2.occupancy           986520000                       # Layer occupancy (ticks) (Tick)
system.membus.reqLayer2.utilization               0.0                       # Layer utilization (Ratio)
system.membus.respLayer0.occupancy          845520000                       # Layer occupancy (ticks) (Tick)
system.membus.respLayer0.utilization              0.0                       # Layer utilization (Ratio)
system.membus.snoop_filter.totRequests        1347080                       # Total number of requests made to the snoop filter. (Count)
system.membus.snoop_filter.hitSingleRequests       670664                       # Number of requests hitting in the snoop filter with a single holder of the requested data. (Count)
system.membus.snoop_filter.hitMultiRequests            0                       # Number of requests hitting in the snoop filter with multiple (>1) holders of the requested data. (Count)
system.membus.snoop_filter.totSnoops                0                       # Total number of snoops made to the snoop filter. (Count)
system.membus.snoop_filter.hitSingleSnoops            0                       # Number of snoops hitting in the snoop filter with a single holder of the requested data. (Count)
system.membus.snoop_filter.hitMultiSnoops            0                       # Number of snoops hitting in the snoop filter with multiple (>1) holders of the requested data. (Count)
system.workload.inst.arm                            0                       # number of arm instructions executed (Count)
system.workload.inst.quiesce                        0                       # number of quiesce instructions executed (Count)

---------- End Simulation Statistics   ----------
