
---------- Begin Simulation Statistics ----------
simSeconds                                   0.000001                       # Number of seconds simulated (Second)
simTicks                                       630000                       # Number of ticks simulated (Tick)
finalTick                                      630000                       # Number of ticks from beginning of simulation (restored from checkpoints and never reset) (Tick)
simFreq                                  1000000000000                       # The number of ticks per simulated second ((Tick/Second))
hostSeconds                                      0.01                       # Real time elapsed on the host (Second)
hostTickRate                                 90387374                       # The number of ticks simulated per host second (ticks/s) ((Tick/Second))
hostMemory                                     692772                       # Number of bytes of host memory used (Byte)
system.cache_hierarchy.ruby_system.delayHistogram::bucket_size            1                       # delay histogram for all message (Unspecified)
system.cache_hierarchy.ruby_system.delayHistogram::max_bucket            9                       # delay histogram for all message (Unspecified)
system.cache_hierarchy.ruby_system.delayHistogram::samples           10                       # delay histogram for all message (Unspecified)
system.cache_hierarchy.ruby_system.delayHistogram |          10    100.00%    100.00% |           0      0.00%    100.00% |           0      0.00%    100.00% |           0      0.00%    100.00% |           0      0.00%    100.00% |           0      0.00%    100.00% |           0      0.00%    100.00% |           0      0.00%    100.00% |           0      0.00%    100.00% |           0      0.00%    100.00% # delay histogram for all message (Unspecified)
system.cache_hierarchy.ruby_system.delayHistogram::total           10                       # delay histogram for all message (Unspecified)
system.cache_hierarchy.ruby_system.m_outstandReqHistSeqr::bucket_size            1                       (Unspecified)
system.cache_hierarchy.ruby_system.m_outstandReqHistSeqr::max_bucket            9                       (Unspecified)
system.cache_hierarchy.ruby_system.m_outstandReqHistSeqr::samples           10                       (Unspecified)
system.cache_hierarchy.ruby_system.m_outstandReqHistSeqr::mean            1                       (Unspecified)
system.cache_hierarchy.ruby_system.m_outstandReqHistSeqr::gmean            1                       (Unspecified)
system.cache_hierarchy.ruby_system.m_outstandReqHistSeqr |           0      0.00%      0.00% |          10    100.00%    100.00% |           0      0.00%    100.00% |           0      0.00%    100.00% |           0      0.00%    100.00% |           0      0.00%    100.00% |           0      0.00%    100.00% |           0      0.00%    100.00% |           0      0.00%    100.00% |           0      0.00%    100.00% (Unspecified)
system.cache_hierarchy.ruby_system.m_outstandReqHistSeqr::total           10                       (Unspecified)
system.cache_hierarchy.ruby_system.m_latencyHistSeqr::bucket_size            8                       (Unspecified)
system.cache_hierarchy.ruby_system.m_latencyHistSeqr::max_bucket           79                       (Unspecified)
system.cache_hierarchy.ruby_system.m_latencyHistSeqr::samples           10                       (Unspecified)
system.cache_hierarchy.ruby_system.m_latencyHistSeqr::mean    32.600000                       (Unspecified)
system.cache_hierarchy.ruby_system.m_latencyHistSeqr::gmean    14.602926                       (Unspecified)
system.cache_hierarchy.ruby_system.m_latencyHistSeqr::stdev    21.914987                       (Unspecified)
system.cache_hierarchy.ruby_system.m_latencyHistSeqr |           3     30.00%     30.00% |           0      0.00%     30.00% |           0      0.00%     30.00% |           0      0.00%     30.00% |           0      0.00%     30.00% |           4     40.00%     70.00% |           3     30.00%    100.00% |           0      0.00%    100.00% |           0      0.00%    100.00% |           0      0.00%    100.00% (Unspecified)
system.cache_hierarchy.ruby_system.m_latencyHistSeqr::total           10                       (Unspecified)
system.cache_hierarchy.ruby_system.m_hitLatencyHistSeqr::bucket_size            1                       (Unspecified)
system.cache_hierarchy.ruby_system.m_hitLatencyHistSeqr::max_bucket            9                       (Unspecified)
system.cache_hierarchy.ruby_system.m_hitLatencyHistSeqr::samples            3                       (Unspecified)
system.cache_hierarchy.ruby_system.m_hitLatencyHistSeqr::mean            1                       (Unspecified)
system.cache_hierarchy.ruby_system.m_hitLatencyHistSeqr::gmean            1                       (Unspecified)
system.cache_hierarchy.ruby_system.m_hitLatencyHistSeqr |           0      0.00%      0.00% |           3    100.00%    100.00% |           0      0.00%    100.00% |           0      0.00%    100.00% |           0      0.00%    100.00% |           0      0.00%    100.00% |           0      0.00%    100.00% |           0      0.00%    100.00% |           0      0.00%    100.00% |           0      0.00%    100.00% (Unspecified)
system.cache_hierarchy.ruby_system.m_hitLatencyHistSeqr::total            3                       (Unspecified)
system.cache_hierarchy.ruby_system.m_missLatencyHistSeqr::bucket_size            8                       (Unspecified)
system.cache_hierarchy.ruby_system.m_missLatencyHistSeqr::max_bucket           79                       (Unspecified)
system.cache_hierarchy.ruby_system.m_missLatencyHistSeqr::samples            7                       (Unspecified)
system.cache_hierarchy.ruby_system.m_missLatencyHistSeqr::mean    46.142857                       (Unspecified)
system.cache_hierarchy.ruby_system.m_missLatencyHistSeqr::gmean    46.077145                       (Unspecified)
system.cache_hierarchy.ruby_system.m_missLatencyHistSeqr::stdev     2.672612                       (Unspecified)
system.cache_hierarchy.ruby_system.m_missLatencyHistSeqr |           0      0.00%      0.00% |           0      0.00%      0.00% |           0      0.00%      0.00% |           0      0.00%      0.00% |           0      0.00%      0.00% |           4     57.14%     57.14% |           3     42.86%    100.00% |           0      0.00%    100.00% |           0      0.00%    100.00% |           0      0.00%    100.00% (Unspecified)
system.cache_hierarchy.ruby_system.m_missLatencyHistSeqr::total            7                       (Unspecified)
system.cache_hierarchy.ruby_system.delayVCHist.vnet_1::bucket_size            1                       # delay histogram for vnet_1 (Unspecified)
system.cache_hierarchy.ruby_system.delayVCHist.vnet_1::max_bucket            9                       # delay histogram for vnet_1 (Unspecified)
system.cache_hierarchy.ruby_system.delayVCHist.vnet_1::samples            7                       # delay histogram for vnet_1 (Unspecified)
system.cache_hierarchy.ruby_system.delayVCHist.vnet_1 |           7    100.00%    100.00% |           0      0.00%    100.00% |           0      0.00%    100.00% |           0      0.00%    100.00% |           0      0.00%    100.00% |           0      0.00%    100.00% |           0      0.00%    100.00% |           0      0.00%    100.00% |           0      0.00%    100.00% |           0      0.00%    100.00% # delay histogram for vnet_1 (Unspecified)
system.cache_hierarchy.ruby_system.delayVCHist.vnet_1::total            7                       # delay histogram for vnet_1 (Unspecified)
system.cache_hierarchy.ruby_system.delayVCHist.vnet_2::bucket_size            1                       # delay histogram for vnet_2 (Unspecified)
system.cache_hierarchy.ruby_system.delayVCHist.vnet_2::max_bucket            9                       # delay histogram for vnet_2 (Unspecified)
system.cache_hierarchy.ruby_system.delayVCHist.vnet_2::samples            3                       # delay histogram for vnet_2 (Unspecified)
system.cache_hierarchy.ruby_system.delayVCHist.vnet_2 |           3    100.00%    100.00% |           0      0.00%    100.00% |           0      0.00%    100.00% |           0      0.00%    100.00% |           0      0.00%    100.00% |           0      0.00%    100.00% |           0      0.00%    100.00% |           0      0.00%    100.00% |           0      0.00%    100.00% |           0      0.00%    100.00% # delay histogram for vnet_2 (Unspecified)
system.cache_hierarchy.ruby_system.delayVCHist.vnet_2::total            3                       # delay histogram for vnet_2 (Unspecified)
system.cache_hierarchy.ruby_system.L1Cache_Controller.Load           10      0.00%      0.00% (Unspecified)
system.cache_hierarchy.ruby_system.L1Cache_Controller.Data            7      0.00%      0.00% (Unspecified)
system.cache_hierarchy.ruby_system.L1Cache_Controller.Replacement            3      0.00%      0.00% (Unspecified)
system.cache_hierarchy.ruby_system.L1Cache_Controller.Writeback_Ack            3      0.00%      0.00% (Unspecified)
system.cache_hierarchy.ruby_system.L1Cache_Controller.I.Load            7      0.00%      0.00% (Unspecified)
system.cache_hierarchy.ruby_system.L1Cache_Controller.M.Load            3      0.00%      0.00% (Unspecified)
system.cache_hierarchy.ruby_system.L1Cache_Controller.M.Replacement            3      0.00%      0.00% (Unspecified)
system.cache_hierarchy.ruby_system.L1Cache_Controller.MI.Writeback_Ack            3      0.00%      0.00% (Unspecified)
system.cache_hierarchy.ruby_system.L1Cache_Controller.IS.Data            7      0.00%      0.00% (Unspecified)
system.cache_hierarchy.ruby_system.Directory_Controller.GETX            7      0.00%      0.00% (Unspecified)
system.cache_hierarchy.ruby_system.Directory_Controller.PUTX            3      0.00%      0.00% (Unspecified)
system.cache_hierarchy.ruby_system.Directory_Controller.Memory_Data            7      0.00%      0.00% (Unspecified)
system.cache_hierarchy.ruby_system.Directory_Controller.Memory_Ack            3      0.00%      0.00% (Unspecified)
system.cache_hierarchy.ruby_system.Directory_Controller.I.GETX            7      0.00%      0.00% (Unspecified)
system.cache_hierarchy.ruby_system.Directory_Controller.M.PUTX            3      0.00%      0.00% (Unspecified)
system.cache_hierarchy.ruby_system.Directory_Controller.IM.Memory_Data            7      0.00%      0.00% (Unspecified)
system.cache_hierarchy.ruby_system.Directory_Controller.MI.Memory_Ack            3      0.00%      0.00% (Unspecified)
system.cache_hierarchy.ruby_system.MachineType.Directory.miss_mach_latency_hist_seqr::bucket_size            8                       (Unspecified)
system.cache_hierarchy.ruby_system.MachineType.Directory.miss_mach_latency_hist_seqr::max_bucket           79                       (Unspecified)
system.cache_hierarchy.ruby_system.MachineType.Directory.miss_mach_latency_hist_seqr::samples            7                       (Unspecified)
system.cache_hierarchy.ruby_system.MachineType.Directory.miss_mach_latency_hist_seqr::mean    46.142857                       (Unspecified)
system.cache_hierarchy.ruby_system.MachineType.Directory.miss_mach_latency_hist_seqr::gmean    46.077145                       (Unspecified)
system.cache_hierarchy.ruby_system.MachineType.Directory.miss_mach_latency_hist_seqr::stdev     2.672612                       (Unspecified)
system.cache_hierarchy.ruby_system.MachineType.Directory.miss_mach_latency_hist_seqr |           0      0.00%      0.00% |           0      0.00%      0.00% |           0      0.00%      0.00% |           0      0.00%      0.00% |           0      0.00%      0.00% |           4     57.14%     57.14% |           3     42.86%    100.00% |           0      0.00%    100.00% |           0      0.00%    100.00% |           0      0.00%    100.00% (Unspecified)
system.cache_hierarchy.ruby_system.MachineType.Directory.miss_mach_latency_hist_seqr::total            7                       (Unspecified)
system.cache_hierarchy.ruby_system.MachineType.Directory.incomplete_times_seqr            7                       (Unspecified)
system.cache_hierarchy.ruby_system.RequestType.LD.latency_hist_seqr::bucket_size            8                       (Unspecified)
system.cache_hierarchy.ruby_system.RequestType.LD.latency_hist_seqr::max_bucket           79                       (Unspecified)
system.cache_hierarchy.ruby_system.RequestType.LD.latency_hist_seqr::samples           10                       (Unspecified)
system.cache_hierarchy.ruby_system.RequestType.LD.latency_hist_seqr::mean    32.600000                       (Unspecified)
system.cache_hierarchy.ruby_system.RequestType.LD.latency_hist_seqr::gmean    14.602926                       (Unspecified)
system.cache_hierarchy.ruby_system.RequestType.LD.latency_hist_seqr::stdev    21.914987                       (Unspecified)
system.cache_hierarchy.ruby_system.RequestType.LD.latency_hist_seqr |           3     30.00%     30.00% |           0      0.00%     30.00% |           0      0.00%     30.00% |           0      0.00%     30.00% |           0      0.00%     30.00% |           4     40.00%     70.00% |           3     30.00%    100.00% |           0      0.00%    100.00% |           0      0.00%    100.00% |           0      0.00%    100.00% (Unspecified)
system.cache_hierarchy.ruby_system.RequestType.LD.latency_hist_seqr::total           10                       (Unspecified)
system.cache_hierarchy.ruby_system.RequestType.LD.hit_latency_hist_seqr::bucket_size            1                       (Unspecified)
system.cache_hierarchy.ruby_system.RequestType.LD.hit_latency_hist_seqr::max_bucket            9                       (Unspecified)
system.cache_hierarchy.ruby_system.RequestType.LD.hit_latency_hist_seqr::samples            3                       (Unspecified)
system.cache_hierarchy.ruby_system.RequestType.LD.hit_latency_hist_seqr::mean            1                       (Unspecified)
system.cache_hierarchy.ruby_system.RequestType.LD.hit_latency_hist_seqr::gmean            1                       (Unspecified)
system.cache_hierarchy.ruby_system.RequestType.LD.hit_latency_hist_seqr |           0      0.00%      0.00% |           3    100.00%    100.00% |           0      0.00%    100.00% |           0      0.00%    100.00% |           0      0.00%    100.00% |           0      0.00%    100.00% |           0      0.00%    100.00% |           0      0.00%    100.00% |           0      0.00%    100.00% |           0      0.00%    100.00% (Unspecified)
system.cache_hierarchy.ruby_system.RequestType.LD.hit_latency_hist_seqr::total            3                       (Unspecified)
system.cache_hierarchy.ruby_system.RequestType.LD.miss_latency_hist_seqr::bucket_size            8                       (Unspecified)
system.cache_hierarchy.ruby_system.RequestType.LD.miss_latency_hist_seqr::max_bucket           79                       (Unspecified)
system.cache_hierarchy.ruby_system.RequestType.LD.miss_latency_hist_seqr::samples            7                       (Unspecified)
system.cache_hierarchy.ruby_system.RequestType.LD.miss_latency_hist_seqr::mean    46.142857                       (Unspecified)
system.cache_hierarchy.ruby_system.RequestType.LD.miss_latency_hist_seqr::gmean    46.077145                       (Unspecified)
system.cache_hierarchy.ruby_system.RequestType.LD.miss_latency_hist_seqr::stdev     2.672612                       (Unspecified)
system.cache_hierarchy.ruby_system.RequestType.LD.miss_latency_hist_seqr |           0      0.00%      0.00% |           0      0.00%      0.00% |           0      0.00%      0.00% |           0      0.00%      0.00% |           0      0.00%      0.00% |           4     57.14%     57.14% |           3     42.86%    100.00% |           0      0.00%    100.00% |           0      0.00%    100.00% |           0      0.00%    100.00% (Unspecified)
system.cache_hierarchy.ruby_system.RequestType.LD.miss_latency_hist_seqr::total            7                       (Unspecified)
system.cache_hierarchy.ruby_system.RequestTypeMachineType.LD.Directory.miss_type_mach_latency_hist_seqr::bucket_size            8                       (Unspecified)
system.cache_hierarchy.ruby_system.RequestTypeMachineType.LD.Directory.miss_type_mach_latency_hist_seqr::max_bucket           79                       (Unspecified)
system.cache_hierarchy.ruby_system.RequestTypeMachineType.LD.Directory.miss_type_mach_latency_hist_seqr::samples            7                       (Unspecified)
system.cache_hierarchy.ruby_system.RequestTypeMachineType.LD.Directory.miss_type_mach_latency_hist_seqr::mean    46.142857                       (Unspecified)
system.cache_hierarchy.ruby_system.RequestTypeMachineType.LD.Directory.miss_type_mach_latency_hist_seqr::gmean    46.077145                       (Unspecified)
system.cache_hierarchy.ruby_system.RequestTypeMachineType.LD.Directory.miss_type_mach_latency_hist_seqr::stdev     2.672612                       (Unspecified)
system.cache_hierarchy.ruby_system.RequestTypeMachineType.LD.Directory.miss_type_mach_latency_hist_seqr |           0      0.00%      0.00% |           0      0.00%      0.00% |           0      0.00%      0.00% |           0      0.00%      0.00% |           0      0.00%      0.00% |           4     57.14%     57.14% |           3     42.86%    100.00% |           0      0.00%    100.00% |           0      0.00%    100.00% |           0      0.00%    100.00% (Unspecified)
system.cache_hierarchy.ruby_system.RequestTypeMachineType.LD.Directory.miss_type_mach_latency_hist_seqr::total            7                       (Unspecified)
system.cache_hierarchy.ruby_system.controllers.delayHistogram::samples           10                       # delay_histogram (Unspecified)
system.cache_hierarchy.ruby_system.controllers.delayHistogram::0           10    100.00%    100.00% # delay_histogram (Unspecified)
system.cache_hierarchy.ruby_system.controllers.delayHistogram::total           10                       # delay_histogram (Unspecified)
system.cache_hierarchy.ruby_system.controllers.cacheMemory.m_demand_hits            3                       # Number of cache demand hits (Unspecified)
system.cache_hierarchy.ruby_system.controllers.cacheMemory.m_demand_misses            7                       # Number of cache demand misses (Unspecified)
system.cache_hierarchy.ruby_system.controllers.cacheMemory.m_demand_accesses           10                       # Number of cache demand accesses (Unspecified)
system.cache_hierarchy.ruby_system.controllers.forwardToCache.m_msg_count            3                       # Number of messages passed the buffer (Count)
system.cache_hierarchy.ruby_system.controllers.forwardToCache.m_buf_msgs     0.004762                       # Average number of messages in buffer ((Count/Tick))
system.cache_hierarchy.ruby_system.controllers.mandatoryQueue.m_msg_count           10                       # Number of messages passed the buffer (Count)
system.cache_hierarchy.ruby_system.controllers.mandatoryQueue.m_buf_msgs     0.015873                       # Average number of messages in buffer ((Count/Tick))
system.cache_hierarchy.ruby_system.controllers.power_state.pwrStateResidencyTicks::UNDEFINED       630000                       # Cumulative time (in ticks) in various power states (Tick)
system.cache_hierarchy.ruby_system.controllers.requestFromCache.m_msg_count           10                       # Number of messages passed the buffer (Count)
system.cache_hierarchy.ruby_system.controllers.requestFromCache.m_buf_msgs     0.031746                       # Average number of messages in buffer ((Count/Tick))
system.cache_hierarchy.ruby_system.controllers.responseToCache.m_msg_count            7                       # Number of messages passed the buffer (Count)
system.cache_hierarchy.ruby_system.controllers.responseToCache.m_buf_msgs     0.011111                       # Average number of messages in buffer ((Count/Tick))
system.cache_hierarchy.ruby_system.controllers.sequencer.power_state.pwrStateResidencyTicks::UNDEFINED       630000                       # Cumulative time (in ticks) in various power states (Tick)
system.cache_hierarchy.ruby_system.directory_controllers.forwardFromDir.m_msg_count            3                       # Number of messages passed the buffer (Count)
system.cache_hierarchy.ruby_system.directory_controllers.forwardFromDir.m_buf_msgs     0.004762                       # Average number of messages in buffer ((Count/Tick))
system.cache_hierarchy.ruby_system.directory_controllers.power_state.pwrStateResidencyTicks::UNDEFINED       630000                       # Cumulative time (in ticks) in various power states (Tick)
system.cache_hierarchy.ruby_system.directory_controllers.requestToDir.m_msg_count           10                       # Number of messages passed the buffer (Count)
system.cache_hierarchy.ruby_system.directory_controllers.requestToDir.m_buf_msgs     0.015873                       # Average number of messages in buffer ((Count/Tick))
system.cache_hierarchy.ruby_system.directory_controllers.requestToMemory.m_msg_count           10                       # Number of messages passed the buffer (Count)
system.cache_hierarchy.ruby_system.directory_controllers.requestToMemory.m_buf_msgs     0.019073                       # Average number of messages in buffer ((Count/Tick))
system.cache_hierarchy.ruby_system.directory_controllers.requestToMemory.m_stall_time         2016                       # Total number of ticks messages were stalled in this buffer (Tick)
system.cache_hierarchy.ruby_system.directory_controllers.requestToMemory.m_avg_stall_time   201.600000                       # Average stall ticks per message ((Tick/Count))
system.cache_hierarchy.ruby_system.directory_controllers.responseFromDir.m_msg_count            7                       # Number of messages passed the buffer (Count)
system.cache_hierarchy.ruby_system.directory_controllers.responseFromDir.m_buf_msgs     0.011111                       # Average number of messages in buffer ((Count/Tick))
system.cache_hierarchy.ruby_system.directory_controllers.responseFromMemory.m_msg_count           10                       # Number of messages passed the buffer (Count)
system.cache_hierarchy.ruby_system.directory_controllers.responseFromMemory.m_buf_msgs     0.017435                       # Average number of messages in buffer ((Count/Tick))
system.cache_hierarchy.ruby_system.network.msg_count.Control           14                       (Unspecified)
system.cache_hierarchy.ruby_system.network.msg_byte.Control          112                       (Unspecified)
system.cache_hierarchy.ruby_system.network.msg_count.Data            6                       (Unspecified)
system.cache_hierarchy.ruby_system.network.msg_byte.Data          432                       (Unspecified)
system.cache_hierarchy.ruby_system.network.msg_count.Response_Data           14                       (Unspecified)
system.cache_hierarchy.ruby_system.network.msg_byte.Response_Data         1008                       (Unspecified)
system.cache_hierarchy.ruby_system.network.msg_count.Writeback_Control            6                       (Unspecified)
system.cache_hierarchy.ruby_system.network.msg_byte.Writeback_Control           48                       (Unspecified)
system.cache_hierarchy.ruby_system.network.int_links0.buffers2.m_msg_count           10                       # Number of messages passed the buffer (Count)
system.cache_hierarchy.ruby_system.network.int_links0.buffers2.m_buf_msgs     0.015873                       # Average number of messages in buffer ((Count/Tick))
system.cache_hierarchy.ruby_system.network.int_links1.buffers3.m_msg_count            3                       # Number of messages passed the buffer (Count)
system.cache_hierarchy.ruby_system.network.int_links1.buffers3.m_buf_msgs     0.004762                       # Average number of messages in buffer ((Count/Tick))
system.cache_hierarchy.ruby_system.network.int_links1.buffers4.m_msg_count            7                       # Number of messages passed the buffer (Count)
system.cache_hierarchy.ruby_system.network.int_links1.buffers4.m_buf_msgs     0.011111                       # Average number of messages in buffer ((Count/Tick))
system.cache_hierarchy.ruby_system.network.power_state.pwrStateResidencyTicks::UNDEFINED       630000                       # Cumulative time (in ticks) in various power states (Tick)
system.cache_hierarchy.ruby_system.network.routers0.percent_links_utilized     3.968254                       (Unspecified)
system.cache_hierarchy.ruby_system.network.routers0.msg_count.Control::2            7                       (Unspecified)
system.cache_hierarchy.ruby_system.network.routers0.msg_bytes.Control::2           56                       (Unspecified)
system.cache_hierarchy.ruby_system.network.routers0.msg_count.Data::2            3                       (Unspecified)
system.cache_hierarchy.ruby_system.network.routers0.msg_bytes.Data::2          216                       (Unspecified)
system.cache_hierarchy.ruby_system.network.routers0.msg_count.Response_Data::4            7                       (Unspecified)
system.cache_hierarchy.ruby_system.network.routers0.msg_bytes.Response_Data::4          504                       (Unspecified)
system.cache_hierarchy.ruby_system.network.routers0.msg_count.Writeback_Control::3            3                       (Unspecified)
system.cache_hierarchy.ruby_system.network.routers0.msg_bytes.Writeback_Control::3           24                       (Unspecified)
system.cache_hierarchy.ruby_system.network.routers0.port_buffers3.m_msg_count            3                       # Number of messages passed the buffer (Count)
system.cache_hierarchy.ruby_system.network.routers0.port_buffers3.m_buf_msgs     0.004762                       # Average number of messages in buffer ((Count/Tick))
system.cache_hierarchy.ruby_system.network.routers0.port_buffers4.m_msg_count            7                       # Number of messages passed the buffer (Count)
system.cache_hierarchy.ruby_system.network.routers0.port_buffers4.m_buf_msgs     0.011111                       # Average number of messages in buffer ((Count/Tick))
system.cache_hierarchy.ruby_system.network.routers0.port_buffers7.m_msg_count           10                       # Number of messages passed the buffer (Count)
system.cache_hierarchy.ruby_system.network.routers0.port_buffers7.m_buf_msgs     0.034921                       # Average number of messages in buffer ((Count/Tick))
system.cache_hierarchy.ruby_system.network.routers0.port_buffers7.m_stall_time        12000                       # Total number of ticks messages were stalled in this buffer (Tick)
system.cache_hierarchy.ruby_system.network.routers0.port_buffers7.m_avg_stall_time         1200                       # Average stall ticks per message ((Tick/Count))
system.cache_hierarchy.ruby_system.network.routers0.power_state.pwrStateResidencyTicks::UNDEFINED       630000                       # Cumulative time (in ticks) in various power states (Tick)
system.cache_hierarchy.ruby_system.network.routers0.throttle00.acc_link_utilization           33                       # Accumulated link utilization (Count)
system.cache_hierarchy.ruby_system.network.routers0.throttle00.link_utilization     5.238095                       # Average link utilization (Ratio)
system.cache_hierarchy.ruby_system.network.routers0.throttle00.total_msg_count           10                       # Total number of messages forwarded by this switch (Count)
system.cache_hierarchy.ruby_system.network.routers0.throttle00.total_msg_bytes          528                       # Total number of bytes forwarded by this switch (Byte)
system.cache_hierarchy.ruby_system.network.routers0.throttle00.total_data_msg_bytes          448                       # Total number of data bytes forwarded by this switch (Byte)
system.cache_hierarchy.ruby_system.network.routers0.throttle00.total_msg_wait_time            0                       # Total time spend forwarding messages (Tick)
system.cache_hierarchy.ruby_system.network.routers0.throttle00.total_stall_cy            0                       # Total time spent blocked on any output link (Cycle)
system.cache_hierarchy.ruby_system.network.routers0.throttle00.total_bw_sat_cy           28                       # Total time bandwidth was saturated on any output link (Cycle)
system.cache_hierarchy.ruby_system.network.routers0.throttle00.avg_msg_wait_time            0                       # Average time a message took to be forwarded (Ratio)
system.cache_hierarchy.ruby_system.network.routers0.throttle00.avg_bandwidth         0.78                       # Average bandwidth (GB/s) (Ratio)
system.cache_hierarchy.ruby_system.network.routers0.throttle00.avg_useful_bandwidth         0.66                       # Average usefull (only data) bandwidth (GB/s) (Ratio)
system.cache_hierarchy.ruby_system.network.routers0.throttle00.msg_count.Response_Data::4            7                       (Unspecified)
system.cache_hierarchy.ruby_system.network.routers0.throttle00.msg_bytes.Response_Data::4          504                       (Unspecified)
system.cache_hierarchy.ruby_system.network.routers0.throttle00.msg_count.Writeback_Control::3            3                       (Unspecified)
system.cache_hierarchy.ruby_system.network.routers0.throttle00.msg_bytes.Writeback_Control::3           24                       (Unspecified)
system.cache_hierarchy.ruby_system.network.routers0.throttle01.acc_link_utilization           17                       # Accumulated link utilization (Count)
system.cache_hierarchy.ruby_system.network.routers0.throttle01.link_utilization     2.698413                       # Average link utilization (Ratio)
system.cache_hierarchy.ruby_system.network.routers0.throttle01.total_msg_count           10                       # Total number of messages forwarded by this switch (Count)
system.cache_hierarchy.ruby_system.network.routers0.throttle01.total_msg_bytes          272                       # Total number of bytes forwarded by this switch (Byte)
system.cache_hierarchy.ruby_system.network.routers0.throttle01.total_data_msg_bytes          192                       # Total number of data bytes forwarded by this switch (Byte)
system.cache_hierarchy.ruby_system.network.routers0.throttle01.total_msg_wait_time        12000                       # Total time spend forwarding messages (Tick)
system.cache_hierarchy.ruby_system.network.routers0.throttle01.total_stall_cy            0                       # Total time spent blocked on any output link (Cycle)
system.cache_hierarchy.ruby_system.network.routers0.throttle01.total_bw_sat_cy           12                       # Total time bandwidth was saturated on any output link (Cycle)
system.cache_hierarchy.ruby_system.network.routers0.throttle01.avg_msg_wait_time         1200                       # Average time a message took to be forwarded (Ratio)
system.cache_hierarchy.ruby_system.network.routers0.throttle01.avg_bandwidth         0.40                       # Average bandwidth (GB/s) (Ratio)
system.cache_hierarchy.ruby_system.network.routers0.throttle01.avg_useful_bandwidth         0.28                       # Average usefull (only data) bandwidth (GB/s) (Ratio)
system.cache_hierarchy.ruby_system.network.routers0.throttle01.msg_count.Control::2            7                       (Unspecified)
system.cache_hierarchy.ruby_system.network.routers0.throttle01.msg_bytes.Control::2           56                       (Unspecified)
system.cache_hierarchy.ruby_system.network.routers0.throttle01.msg_count.Data::2            3                       (Unspecified)
system.cache_hierarchy.ruby_system.network.routers0.throttle01.msg_bytes.Data::2          216                       (Unspecified)
system.cache_hierarchy.ruby_system.network.routers1.percent_links_utilized     3.968254                       (Unspecified)
system.cache_hierarchy.ruby_system.network.routers1.msg_count.Control::2            7                       (Unspecified)
system.cache_hierarchy.ruby_system.network.routers1.msg_bytes.Control::2           56                       (Unspecified)
system.cache_hierarchy.ruby_system.network.routers1.msg_count.Data::2            3                       (Unspecified)
system.cache_hierarchy.ruby_system.network.routers1.msg_bytes.Data::2          216                       (Unspecified)
system.cache_hierarchy.ruby_system.network.routers1.msg_count.Response_Data::4            7                       (Unspecified)
system.cache_hierarchy.ruby_system.network.routers1.msg_bytes.Response_Data::4          504                       (Unspecified)
system.cache_hierarchy.ruby_system.network.routers1.msg_count.Writeback_Control::3            3                       (Unspecified)
system.cache_hierarchy.ruby_system.network.routers1.msg_bytes.Writeback_Control::3           24                       (Unspecified)
system.cache_hierarchy.ruby_system.network.routers1.port_buffers2.m_msg_count           10                       # Number of messages passed the buffer (Count)
system.cache_hierarchy.ruby_system.network.routers1.port_buffers2.m_buf_msgs     0.015873                       # Average number of messages in buffer ((Count/Tick))
system.cache_hierarchy.ruby_system.network.routers1.port_buffers8.m_msg_count            3                       # Number of messages passed the buffer (Count)
system.cache_hierarchy.ruby_system.network.routers1.port_buffers8.m_buf_msgs     0.004762                       # Average number of messages in buffer ((Count/Tick))
system.cache_hierarchy.ruby_system.network.routers1.port_buffers9.m_msg_count            7                       # Number of messages passed the buffer (Count)
system.cache_hierarchy.ruby_system.network.routers1.port_buffers9.m_buf_msgs     0.011111                       # Average number of messages in buffer ((Count/Tick))
system.cache_hierarchy.ruby_system.network.routers1.power_state.pwrStateResidencyTicks::UNDEFINED       630000                       # Cumulative time (in ticks) in various power states (Tick)
system.cache_hierarchy.ruby_system.network.routers1.throttle00.acc_link_utilization           17                       # Accumulated link utilization (Count)
system.cache_hierarchy.ruby_system.network.routers1.throttle00.link_utilization     2.698413                       # Average link utilization (Ratio)
system.cache_hierarchy.ruby_system.network.routers1.throttle00.total_msg_count           10                       # Total number of messages forwarded by this switch (Count)
system.cache_hierarchy.ruby_system.network.routers1.throttle00.total_msg_bytes          272                       # Total number of bytes forwarded by this switch (Byte)
system.cache_hierarchy.ruby_system.network.routers1.throttle00.total_data_msg_bytes          192                       # Total number of data bytes forwarded by this switch (Byte)
system.cache_hierarchy.ruby_system.network.routers1.throttle00.total_msg_wait_time            0                       # Total time spend forwarding messages (Tick)
system.cache_hierarchy.ruby_system.network.routers1.throttle00.total_stall_cy            0                       # Total time spent blocked on any output link (Cycle)
system.cache_hierarchy.ruby_system.network.routers1.throttle00.total_bw_sat_cy           12                       # Total time bandwidth was saturated on any output link (Cycle)
system.cache_hierarchy.ruby_system.network.routers1.throttle00.avg_msg_wait_time            0                       # Average time a message took to be forwarded (Ratio)
system.cache_hierarchy.ruby_system.network.routers1.throttle00.avg_bandwidth         0.40                       # Average bandwidth (GB/s) (Ratio)
system.cache_hierarchy.ruby_system.network.routers1.throttle00.avg_useful_bandwidth         0.28                       # Average usefull (only data) bandwidth (GB/s) (Ratio)
system.cache_hierarchy.ruby_system.network.routers1.throttle00.msg_count.Control::2            7                       (Unspecified)
system.cache_hierarchy.ruby_system.network.routers1.throttle00.msg_bytes.Control::2           56                       (Unspecified)
system.cache_hierarchy.ruby_system.network.routers1.throttle00.msg_count.Data::2            3                       (Unspecified)
system.cache_hierarchy.ruby_system.network.routers1.throttle00.msg_bytes.Data::2          216                       (Unspecified)
system.cache_hierarchy.ruby_system.network.routers1.throttle01.acc_link_utilization           33                       # Accumulated link utilization (Count)
system.cache_hierarchy.ruby_system.network.routers1.throttle01.link_utilization     5.238095                       # Average link utilization (Ratio)
system.cache_hierarchy.ruby_system.network.routers1.throttle01.total_msg_count           10                       # Total number of messages forwarded by this switch (Count)
system.cache_hierarchy.ruby_system.network.routers1.throttle01.total_msg_bytes          528                       # Total number of bytes forwarded by this switch (Byte)
system.cache_hierarchy.ruby_system.network.routers1.throttle01.total_data_msg_bytes          448                       # Total number of data bytes forwarded by this switch (Byte)
system.cache_hierarchy.ruby_system.network.routers1.throttle01.total_msg_wait_time            0                       # Total time spend forwarding messages (Tick)
system.cache_hierarchy.ruby_system.network.routers1.throttle01.total_stall_cy            0                       # Total time spent blocked on any output link (Cycle)
system.cache_hierarchy.ruby_system.network.routers1.throttle01.total_bw_sat_cy           28                       # Total time bandwidth was saturated on any output link (Cycle)
system.cache_hierarchy.ruby_system.network.routers1.throttle01.avg_msg_wait_time            0                       # Average time a message took to be forwarded (Ratio)
system.cache_hierarchy.ruby_system.network.routers1.throttle01.avg_bandwidth         0.78                       # Average bandwidth (GB/s) (Ratio)
system.cache_hierarchy.ruby_system.network.routers1.throttle01.avg_useful_bandwidth         0.66                       # Average usefull (only data) bandwidth (GB/s) (Ratio)
system.cache_hierarchy.ruby_system.network.routers1.throttle01.msg_count.Response_Data::4            7                       (Unspecified)
system.cache_hierarchy.ruby_system.network.routers1.throttle01.msg_bytes.Response_Data::4          504                       (Unspecified)
system.cache_hierarchy.ruby_system.network.routers1.throttle01.msg_count.Writeback_Control::3            3                       (Unspecified)
system.cache_hierarchy.ruby_system.network.routers1.throttle01.msg_bytes.Writeback_Control::3           24                       (Unspecified)
system.cache_hierarchy.ruby_system.power_state.pwrStateResidencyTicks::UNDEFINED       630000                       # Cumulative time (in ticks) in various power states (Tick)
system.cache_hierarchy.ruby_system.sys_port_proxy.power_state.pwrStateResidencyTicks::UNDEFINED       630000                       # Cumulative time (in ticks) in various power states (Tick)
system.clk_domain.clock                          1000                       # Clock period in ticks (Tick)
system.clk_domain.voltage_domain.voltage            1                       # Voltage in Volts (Volt)
system.memory.module.bytesRead::cache_hierarchy.ruby_system.directory_controllers          448                       # Number of bytes read from this memory (Byte)
system.memory.module.bytesRead::total             448                       # Number of bytes read from this memory (Byte)
system.memory.module.bytesWritten::cache_hierarchy.ruby_system.directory_controllers          192                       # Number of bytes written to this memory (Byte)
system.memory.module.bytesWritten::total          192                       # Number of bytes written to this memory (Byte)
system.memory.module.numReads::cache_hierarchy.ruby_system.directory_controllers            7                       # Number of read requests responded to by this memory (Count)
system.memory.module.numReads::total                7                       # Number of read requests responded to by this memory (Count)
system.memory.module.numWrites::cache_hierarchy.ruby_system.directory_controllers            3                       # Number of write requests responded to by this memory (Count)
system.memory.module.numWrites::total               3                       # Number of write requests responded to by this memory (Count)
system.memory.module.bwRead::cache_hierarchy.ruby_system.directory_controllers    711111111                       # Total read bandwidth from this memory ((Byte/Second))
system.memory.module.bwRead::total          711111111                       # Total read bandwidth from this memory ((Byte/Second))
system.memory.module.bwWrite::cache_hierarchy.ruby_system.directory_controllers    304761905                       # Write bandwidth from this memory ((Byte/Second))
system.memory.module.bwWrite::total         304761905                       # Write bandwidth from this memory ((Byte/Second))
system.memory.module.bwTotal::cache_hierarchy.ruby_system.directory_controllers   1015873016                       # Total bandwidth to/from this memory ((Byte/Second))
system.memory.module.bwTotal::total        1015873016                       # Total bandwidth to/from this memory ((Byte/Second))
system.memory.module.power_state.pwrStateResidencyTicks::UNDEFINED       630000                       # Cumulative time (in ticks) in various power states (Tick)
system.processor.cores.generator.numSuppressed            0                       # Number of suppressed packets to non-memory space (Count)
system.processor.cores.generator.numPackets           10                       # Number of packets generated (Count)
system.processor.cores.generator.numRetries            0                       # Number of retries (Count)
system.processor.cores.generator.retryTicks            0                       # Time spent waiting due to back-pressure (Tick)
system.processor.cores.generator.bytesRead          599                       # Number of bytes read (Byte)
system.processor.cores.generator.bytesWritten            0                       # Number of bytes written (Byte)
system.processor.cores.generator.totalReadLatency       326010                       # Total latency of read requests (Tick)
system.processor.cores.generator.totalWriteLatency            0                       # Total latency of write requests (Tick)
system.processor.cores.generator.totalReads           10                       # Total num of reads (Count)
system.processor.cores.generator.totalWrites            0                       # Total num of writes (Count)
system.processor.cores.generator.avgReadLatency        32601                       # Avg latency of read requests ((Tick/Count))
system.processor.cores.generator.avgWriteLatency          nan                       # Avg latency of write requests ((Tick/Count))
system.processor.cores.generator.readBW  950793650.793651                       # Read bandwidth ((Byte/Second))
system.processor.cores.generator.writeBW            0                       # Write bandwidth ((Byte/Second))
system.processor.cores.generator.power_state.pwrStateResidencyTicks::UNDEFINED       630000                       # Cumulative time (in ticks) in various power states (Tick)
system.workload.inst.arm                            0                       # number of arm instructions executed (Count)
system.workload.inst.quiesce                        0                       # number of quiesce instructions executed (Count)

---------- End Simulation Statistics   ----------
